*SPEF "IEEE 1481-1998"
*DESIGN "cordic"
*DATE "Sat Feb  3 22:51:41 2024"
*VENDOR "Cadence Design Systems, Inc."
*PROGRAM "Innovus"
*VERSION "16.26-s040_1"
*DESIGN_FLOW "PIN_CAP NONE" "NAME_SCOPE LOCAL"
*DIVIDER /
*DELIMITER :
*BUS_DELIMITER []
*T_UNIT 1 NS
*C_UNIT 1 PF
*R_UNIT 1 OHM
*L_UNIT 1 HENRY

// MMMC spef file for corner 'rccorners'

*NAME_MAP

*1 FE_OFN97_n_953
*2 genblk1\[0\]\.U/FE_OFN96_FE_OFN1_rst
*3 FE_OFN95_y_8__7
*4 FE_OFN94_y_6__13
*5 CTS_240
*6 CTS_239
*7 CTS_238
*8 CTS_237
*9 CTS_236
*10 CTS_235
*11 CTS_234
*12 CTS_233
*13 CTS_232
*14 CTS_231
*15 CTS_230
*16 CTS_229
*17 CTS_228
*18 CTS_227
*19 CTS_226
*20 CTS_225
*21 CTS_224
*22 CTS_223
*23 CTS_222
*24 CTS_221
*25 CTS_220
*26 CTS_219
*27 CTS_218
*28 CTS_217
*29 genblk1\[1\]\.U/CTS_4
*30 CTS_216
*31 CTS_215
*32 CTS_214
*33 CTS_213
*34 CTS_212
*35 CTS_211
*36 CTS_210
*37 CTS_209
*38 CTS_208
*39 CTS_207
*40 CTS_206
*41 CTS_205
*42 CTS_204
*43 CTS_203
*44 genblk1\[0\]\.U/CTS_12
*45 CTS_202
*46 CTS_201
*47 CTS_200
*48 CTS_199
*49 CTS_198
*50 CTS_197
*51 CTS_196
*52 CTS_195
*53 CTS_194
*54 genblk1\[0\]\.U/CTS_11
*55 CTS_193
*56 CTS_192
*57 CTS_191
*58 genblk1\[0\]\.U/CTS_10
*59 CTS_190
*60 CTS_189
*61 CTS_188
*62 CTS_187
*63 CTS_186
*64 CTS_185
*65 CTS_184
*66 CTS_183
*67 CTS_182
*68 CTS_181
*69 FE_OFN94_n_878
*70 FE_OFN93_FE_OFN3_rst
*71 FE_OFN92_FE_OFN10_rst
*72 FE_OFN88_n_918
*73 FE_OFN86_n_733
*74 FE_OFN85_n_940
*75 FE_OFN83_n_821
*76 genblk1\[1\]\.U/FE_OFN82_n_97
*77 FE_OFN81_n_797
*78 FE_OFN79_n_574
*79 FE_OFN78_n_507
*80 FE_OFN76_n_642
*81 FE_OFN75_n_640
*82 FE_OFN74_genblk1_13__U_add_246_20_Y_sub_242_20_n_2
*83 FE_OFN73_genblk1_13__U_add_241_20_Y_sub_245_20_n_2
*84 genblk1\[1\]\.U/FE_OFN72_n_0
*85 FE_OFN69_n_1177
*86 FE_OFN68_n_648
*87 FE_OFN64_n
*88 genblk1\[0\]\.U/FE_OFN63_n_18
*89 FE_OFN62_n_1283
*90 FE_OFN61_n_1208
*91 FE_OFN59_n_794
*92 FE_OFN57_n_720
*93 FE_OFN52_n_7
*94 FE_OFN51_x_13__3
*95 FE_OFN50_x_8__15
*96 FE_OFN49_z_14__16
*97 FE_OFN48_z_13__16
*98 FE_OFN47_z_12__16
*99 FE_OFN46_z_11__16
*100 FE_OFN45_z_10__16
*101 FE_OFN44_z_9__16
*102 FE_OFN43_z_8__16
*103 FE_OFN42_z_7__16
*104 FE_OFN41_z_6__12
*105 FE_OFN40_z_6__16
*106 FE_OFN39_z_5__16
*107 FE_OFN38_z_4__16
*108 FE_OFN37_z_3__16
*109 genblk1\[1\]\.U/FE_OFN36_z_2__16
*110 genblk1\[1\]\.U/FE_OFN35_z_1__16
*111 FE_OFN34_dft_sdo_2
*112 FE_OFN33_dft_sdo_1
*113 FE_OFN32_FE_OFN14_SE
*114 FE_OFN31_SE
*115 FE_OFN30_SE
*116 FE_OFN29_SE
*117 FE_OFN28_SE
*118 FE_OFN27_SE
*119 FE_OFN26_SE
*120 FE_OFN25_SE
*121 FE_OFN24_SE
*122 FE_OFN23_SE
*123 FE_OFN22_SE
*124 FE_OFN21_SE
*125 FE_OFN20_SE
*126 FE_OFN19_SE
*127 FE_OFN18_SE
*128 FE_OFN17_SE
*129 FE_OFN16_SE
*130 FE_OFN15_SE
*131 FE_OFN13_rst
*132 FE_OFN12_rst
*133 FE_OFN11_rst
*134 FE_OFN10_rst
*135 FE_OFN9_rst
*136 FE_OFN8_rst
*137 FE_OFN7_rst
*138 FE_OFN6_rst
*139 FE_OFN5_rst
*140 FE_OFN4_rst
*141 FE_OFN3_rst
*142 FE_OFN2_rst
*143 FE_OFN1_rst
*144 FE_OFN0_rst
*145 clk
*146 rst
*147 SE
*148 scan_in
*149 dft_sdi_1
*150 dft_sdi_2
*151 dft_sdi_3
*152 dft_sdi_4
*153 dft_sdi_5
*154 dft_sdi_6
*155 dft_sdi_7
*156 x_i[16]
*157 x_i[15]
*158 x_i[14]
*159 x_i[13]
*160 x_i[12]
*161 x_i[11]
*162 x_i[10]
*163 x_i[9]
*164 x_i[8]
*165 x_i[7]
*166 x_i[6]
*167 x_i[5]
*168 x_i[4]
*169 x_i[3]
*170 x_i[2]
*171 x_i[1]
*172 x_i[0]
*173 y_i[16]
*174 y_i[15]
*175 y_i[14]
*176 y_i[13]
*177 y_i[12]
*178 y_i[11]
*179 y_i[10]
*180 y_i[9]
*181 y_i[8]
*182 y_i[7]
*183 y_i[6]
*184 y_i[5]
*185 y_i[4]
*186 y_i[3]
*187 y_i[2]
*188 y_i[1]
*189 y_i[0]
*190 theta_i[16]
*191 theta_i[15]
*192 theta_i[14]
*193 theta_i[13]
*194 theta_i[12]
*195 theta_i[11]
*196 theta_i[10]
*197 theta_i[9]
*198 theta_i[8]
*199 theta_i[7]
*200 theta_i[6]
*201 theta_i[5]
*202 theta_i[4]
*203 theta_i[3]
*204 theta_i[2]
*205 theta_i[1]
*206 theta_i[0]
*207 x_o[16]
*208 x_o[15]
*209 x_o[14]
*210 x_o[13]
*211 x_o[12]
*212 x_o[11]
*213 x_o[10]
*214 x_o[9]
*215 x_o[8]
*216 x_o[7]
*217 x_o[6]
*218 x_o[5]
*219 x_o[4]
*220 x_o[3]
*221 x_o[2]
*222 x_o[1]
*223 x_o[0]
*224 y_o[16]
*225 y_o[15]
*226 y_o[14]
*227 y_o[13]
*228 y_o[12]
*229 y_o[11]
*230 y_o[10]
*231 y_o[9]
*232 y_o[8]
*233 y_o[7]
*234 y_o[6]
*235 y_o[5]
*236 y_o[4]
*237 y_o[3]
*238 y_o[2]
*239 y_o[1]
*240 y_o[0]
*241 theta_o[15]
*242 theta_o[14]
*243 theta_o[13]
*244 theta_o[12]
*245 theta_o[11]
*246 theta_o[10]
*247 theta_o[9]
*248 theta_o[8]
*249 theta_o[7]
*250 theta_o[6]
*251 theta_o[5]
*252 theta_o[4]
*253 theta_o[3]
*254 theta_o[2]
*255 theta_o[1]
*256 theta_o[0]
*257 scan_out
*258 dft_sdo_1
*259 dft_sdo_2
*260 dft_sdo_3
*261 dft_sdo_4
*262 dft_sdo_5
*263 dft_sdo_6
*264 dft_sdo_7
*265 x\[1\][16]
*266 x\[1\][15]
*267 x\[1\][14]
*268 x\[1\][13]
*269 x\[1\][12]
*270 x\[1\][11]
*271 x\[1\][10]
*272 x\[1\][9]
*273 x\[1\][8]
*274 x\[1\][7]
*275 x\[1\][6]
*276 x\[1\][5]
*277 x\[1\][4]
*278 x\[1\][3]
*279 x\[1\][2]
*280 x\[1\][1]
*281 x\[1\][0]
*282 y\[1\][16]
*283 y\[1\][15]
*284 y\[1\][14]
*285 y\[1\][13]
*286 y\[1\][12]
*287 y\[1\][11]
*288 y\[1\][10]
*289 y\[1\][9]
*290 y\[1\][8]
*291 y\[1\][7]
*292 y\[1\][6]
*293 y\[1\][5]
*294 y\[1\][4]
*295 y\[1\][3]
*296 y\[1\][2]
*297 y\[1\][1]
*298 y\[1\][0]
*299 z\[1\][16]
*300 z\[1\][15]
*301 z\[1\][14]
*302 z\[1\][13]
*303 z\[1\][12]
*304 z\[1\][11]
*305 z\[1\][10]
*306 z\[1\][9]
*307 z\[1\][8]
*308 z\[1\][7]
*309 z\[1\][6]
*310 z\[1\][5]
*311 z\[1\][4]
*312 z\[1\][3]
*313 z\[1\][2]
*314 z\[1\][1]
*315 z\[1\][0]
*316 x\[2\][16]
*317 x\[2\][15]
*318 x\[2\][14]
*319 x\[2\][13]
*320 x\[2\][12]
*321 x\[2\][11]
*322 x\[2\][10]
*323 x\[2\][9]
*324 x\[2\][8]
*325 x\[2\][7]
*326 x\[2\][6]
*327 x\[2\][5]
*328 x\[2\][4]
*329 x\[2\][3]
*330 x\[2\][2]
*331 x\[2\][1]
*332 x\[2\][0]
*333 y\[2\][16]
*334 y\[2\][15]
*335 y\[2\][14]
*336 y\[2\][13]
*337 y\[2\][12]
*338 y\[2\][11]
*339 y\[2\][10]
*340 y\[2\][9]
*341 y\[2\][8]
*342 y\[2\][7]
*343 y\[2\][6]
*344 y\[2\][5]
*345 y\[2\][4]
*346 y\[2\][3]
*347 y\[2\][2]
*348 y\[2\][1]
*349 y\[2\][0]
*350 z\[2\][16]
*351 z\[2\][15]
*352 z\[2\][14]
*353 z\[2\][13]
*354 z\[2\][12]
*355 z\[2\][11]
*356 z\[2\][9]
*357 z\[2\][8]
*358 z\[2\][7]
*359 z\[2\][6]
*360 z\[2\][5]
*361 z\[2\][4]
*362 z\[2\][3]
*363 z\[2\][2]
*364 z\[2\][1]
*365 z\[2\][0]
*366 y\[3\][16]
*367 y\[3\][15]
*368 y\[3\][14]
*369 y\[3\][13]
*370 y\[3\][12]
*371 y\[3\][11]
*372 y\[3\][10]
*373 y\[3\][9]
*374 y\[3\][8]
*375 y\[3\][7]
*376 y\[3\][6]
*377 y\[3\][5]
*378 y\[3\][4]
*379 y\[3\][3]
*380 y\[3\][2]
*381 y\[3\][1]
*382 y\[3\][0]
*383 z\[3\][16]
*384 z\[3\][15]
*385 z\[3\][14]
*386 z\[3\][13]
*387 z\[3\][12]
*388 z\[3\][11]
*389 z\[3\][10]
*390 z\[3\][9]
*391 z\[3\][8]
*392 z\[3\][7]
*393 z\[3\][6]
*394 z\[3\][5]
*395 z\[3\][4]
*396 z\[3\][3]
*397 z\[3\][2]
*398 z\[3\][1]
*399 z\[3\][0]
*400 y\[4\][16]
*401 y\[4\][15]
*402 y\[4\][14]
*403 y\[4\][13]
*404 y\[4\][12]
*405 y\[4\][11]
*406 y\[4\][10]
*407 y\[4\][9]
*408 y\[4\][8]
*409 y\[4\][7]
*410 y\[4\][6]
*411 y\[4\][5]
*412 y\[4\][4]
*413 y\[4\][3]
*414 y\[4\][2]
*415 y\[4\][1]
*416 y\[4\][0]
*417 z\[4\][16]
*418 z\[4\][15]
*419 z\[4\][14]
*420 z\[4\][13]
*421 z\[4\][12]
*422 z\[4\][11]
*423 z\[4\][10]
*424 z\[4\][9]
*425 z\[4\][8]
*426 z\[4\][7]
*427 z\[4\][6]
*428 z\[4\][5]
*429 z\[4\][3]
*430 z\[4\][2]
*431 z\[4\][1]
*432 z\[4\][0]
*433 y\[5\][16]
*434 y\[5\][15]
*435 y\[5\][14]
*436 y\[5\][13]
*437 y\[5\][12]
*438 y\[5\][11]
*439 y\[5\][10]
*440 y\[5\][9]
*441 y\[5\][8]
*442 y\[5\][7]
*443 y\[5\][6]
*444 y\[5\][5]
*445 y\[5\][4]
*446 y\[5\][3]
*447 y\[5\][2]
*448 y\[5\][1]
*449 y\[5\][0]
*450 z\[5\][16]
*451 z\[5\][15]
*452 z\[5\][14]
*453 z\[5\][13]
*454 z\[5\][12]
*455 z\[5\][11]
*456 z\[5\][10]
*457 z\[5\][9]
*458 z\[5\][8]
*459 z\[5\][7]
*460 z\[5\][6]
*461 z\[5\][5]
*462 z\[5\][4]
*463 z\[5\][3]
*464 z\[5\][2]
*465 z\[5\][1]
*466 z\[5\][0]
*467 y\[6\][16]
*468 y\[6\][14]
*469 y\[6\][13]
*470 y\[6\][12]
*471 y\[6\][11]
*472 y\[6\][10]
*473 y\[6\][9]
*474 y\[6\][8]
*475 y\[6\][7]
*476 y\[6\][6]
*477 y\[6\][5]
*478 y\[6\][4]
*479 y\[6\][3]
*480 y\[6\][2]
*481 y\[6\][1]
*482 y\[6\][0]
*483 z\[6\][16]
*484 z\[6\][15]
*485 z\[6\][14]
*486 z\[6\][13]
*487 z\[6\][12]
*488 z\[6\][11]
*489 z\[6\][10]
*490 z\[6\][9]
*491 z\[6\][8]
*492 z\[6\][7]
*493 z\[6\][6]
*494 z\[6\][5]
*495 z\[6\][4]
*496 z\[6\][3]
*497 z\[6\][2]
*498 z\[6\][1]
*499 z\[6\][0]
*500 y\[7\][16]
*501 y\[7\][15]
*502 y\[7\][14]
*503 y\[7\][13]
*504 y\[7\][12]
*505 y\[7\][11]
*506 y\[7\][10]
*507 y\[7\][9]
*508 y\[7\][8]
*509 y\[7\][7]
*510 y\[7\][6]
*511 y\[7\][5]
*512 y\[7\][4]
*513 y\[7\][3]
*514 y\[7\][2]
*515 y\[7\][1]
*516 y\[7\][0]
*517 z\[7\][16]
*518 z\[7\][15]
*519 z\[7\][14]
*520 z\[7\][13]
*521 z\[7\][12]
*522 z\[7\][11]
*523 z\[7\][10]
*524 z\[7\][9]
*525 z\[7\][8]
*526 z\[7\][7]
*527 z\[7\][6]
*528 z\[7\][5]
*529 z\[7\][4]
*530 z\[7\][3]
*531 z\[7\][2]
*532 z\[7\][1]
*533 z\[7\][0]
*534 y\[8\][16]
*535 y\[8\][15]
*536 y\[8\][14]
*537 y\[8\][13]
*538 y\[8\][12]
*539 y\[8\][11]
*540 y\[8\][10]
*541 y\[8\][8]
*542 y\[8\][7]
*543 y\[8\][6]
*544 y\[8\][5]
*545 y\[8\][4]
*546 y\[8\][3]
*547 y\[8\][2]
*548 y\[8\][1]
*549 y\[8\][0]
*550 z\[8\][16]
*551 z\[8\][15]
*552 z\[8\][14]
*553 z\[8\][13]
*554 z\[8\][12]
*555 z\[8\][11]
*556 z\[8\][10]
*557 z\[8\][9]
*558 z\[8\][8]
*559 z\[8\][7]
*560 z\[8\][6]
*561 z\[8\][5]
*562 z\[8\][4]
*563 z\[8\][3]
*564 z\[8\][2]
*565 z\[8\][1]
*566 z\[8\][0]
*567 y\[9\][16]
*568 y\[9\][15]
*569 y\[9\][14]
*570 y\[9\][13]
*571 y\[9\][12]
*572 y\[9\][11]
*573 y\[9\][10]
*574 y\[9\][9]
*575 y\[9\][8]
*576 y\[9\][7]
*577 y\[9\][6]
*578 y\[9\][5]
*579 y\[9\][4]
*580 y\[9\][3]
*581 y\[9\][2]
*582 y\[9\][1]
*583 y\[9\][0]
*584 z\[9\][16]
*585 z\[9\][15]
*586 z\[9\][14]
*587 z\[9\][13]
*588 z\[9\][12]
*589 z\[9\][11]
*590 z\[9\][10]
*591 z\[9\][9]
*592 z\[9\][8]
*593 z\[9\][7]
*594 z\[9\][6]
*595 z\[9\][5]
*596 z\[9\][4]
*597 z\[9\][3]
*598 z\[9\][2]
*599 z\[9\][1]
*600 z\[9\][0]
*601 y\[10\][16]
*602 y\[10\][15]
*603 y\[10\][14]
*604 y\[10\][13]
*605 y\[10\][12]
*606 y\[10\][11]
*607 y\[10\][10]
*608 y\[10\][9]
*609 y\[10\][8]
*610 y\[10\][7]
*611 y\[10\][6]
*612 y\[10\][5]
*613 y\[10\][4]
*614 y\[10\][2]
*615 y\[10\][1]
*616 y\[10\][0]
*617 z\[10\][16]
*618 z\[10\][15]
*619 z\[10\][14]
*620 z\[10\][13]
*621 z\[10\][12]
*622 z\[10\][11]
*623 z\[10\][10]
*624 z\[10\][9]
*625 z\[10\][8]
*626 z\[10\][7]
*627 z\[10\][6]
*628 z\[10\][5]
*629 z\[10\][4]
*630 z\[10\][3]
*631 z\[10\][2]
*632 z\[10\][1]
*633 z\[10\][0]
*634 y\[11\][16]
*635 y\[11\][15]
*636 y\[11\][14]
*637 y\[11\][13]
*638 y\[11\][12]
*639 y\[11\][11]
*640 y\[11\][10]
*641 y\[11\][9]
*642 y\[11\][8]
*643 y\[11\][7]
*644 y\[11\][6]
*645 y\[11\][5]
*646 y\[11\][4]
*647 y\[11\][3]
*648 y\[11\][2]
*649 y\[11\][1]
*650 y\[11\][0]
*651 z\[11\][16]
*652 z\[11\][15]
*653 z\[11\][14]
*654 z\[11\][13]
*655 z\[11\][12]
*656 z\[11\][11]
*657 z\[11\][10]
*658 z\[11\][9]
*659 z\[11\][8]
*660 z\[11\][7]
*661 z\[11\][6]
*662 z\[11\][5]
*663 z\[11\][4]
*664 z\[11\][3]
*665 z\[11\][2]
*666 z\[11\][1]
*667 z\[11\][0]
*668 y\[12\][16]
*669 y\[12\][15]
*670 y\[12\][14]
*671 y\[12\][13]
*672 y\[12\][12]
*673 y\[12\][11]
*674 y\[12\][10]
*675 y\[12\][9]
*676 y\[12\][8]
*677 y\[12\][7]
*678 y\[12\][6]
*679 y\[12\][5]
*680 y\[12\][4]
*681 y\[12\][3]
*682 y\[12\][2]
*683 y\[12\][1]
*684 y\[12\][0]
*685 z\[12\][16]
*686 z\[12\][15]
*687 z\[12\][14]
*688 z\[12\][13]
*689 z\[12\][12]
*690 z\[12\][11]
*691 z\[12\][10]
*692 z\[12\][9]
*693 z\[12\][8]
*694 z\[12\][7]
*695 z\[12\][6]
*696 z\[12\][5]
*697 z\[12\][4]
*698 z\[12\][3]
*699 z\[12\][2]
*700 z\[12\][1]
*701 z\[12\][0]
*702 y\[13\][16]
*703 y\[13\][15]
*704 y\[13\][14]
*705 y\[13\][13]
*706 y\[13\][12]
*707 y\[13\][11]
*708 y\[13\][10]
*709 y\[13\][9]
*710 y\[13\][8]
*711 y\[13\][7]
*712 y\[13\][6]
*713 y\[13\][5]
*714 y\[13\][4]
*715 y\[13\][3]
*716 y\[13\][2]
*717 y\[13\][1]
*718 y\[13\][0]
*719 z\[13\][16]
*720 z\[13\][15]
*721 z\[13\][14]
*722 z\[13\][13]
*723 z\[13\][12]
*724 z\[13\][11]
*725 z\[13\][10]
*726 z\[13\][9]
*727 z\[13\][8]
*728 z\[13\][7]
*729 z\[13\][6]
*730 z\[13\][5]
*731 z\[13\][4]
*732 z\[13\][3]
*733 z\[13\][2]
*734 z\[13\][1]
*735 z\[13\][0]
*736 y\[14\][16]
*737 y\[14\][15]
*738 y\[14\][14]
*739 y\[14\][13]
*740 y\[14\][12]
*741 y\[14\][11]
*742 y\[14\][10]
*743 y\[14\][9]
*744 y\[14\][8]
*745 y\[14\][7]
*746 y\[14\][6]
*747 y\[14\][5]
*748 y\[14\][4]
*749 y\[14\][3]
*750 y\[14\][2]
*751 y\[14\][1]
*752 y\[14\][0]
*753 z\[14\][16]
*754 z\[14\][15]
*755 z\[14\][14]
*756 z\[14\][13]
*757 z\[14\][12]
*758 z\[14\][11]
*759 z\[14\][10]
*760 z\[14\][9]
*761 z\[14\][8]
*762 z\[14\][7]
*763 z\[14\][6]
*764 z\[14\][5]
*765 z\[14\][4]
*766 z\[14\][3]
*767 z\[14\][2]
*768 z\[14\][1]
*769 z\[14\][0]
*770 x\[3\][16]
*771 x\[3\][15]
*772 x\[3\][14]
*773 x\[3\][13]
*774 x\[3\][12]
*775 x\[3\][11]
*776 x\[3\][10]
*777 x\[3\][9]
*778 x\[3\][8]
*779 x\[3\][7]
*780 x\[3\][6]
*781 x\[3\][5]
*782 x\[3\][4]
*783 x\[3\][3]
*784 x\[3\][2]
*785 x\[3\][1]
*786 x\[3\][0]
*787 x\[4\][16]
*788 x\[4\][15]
*789 x\[4\][14]
*790 x\[4\][13]
*791 x\[4\][12]
*792 x\[4\][11]
*793 x\[4\][10]
*794 x\[4\][9]
*795 x\[4\][8]
*796 x\[4\][7]
*797 x\[4\][6]
*798 x\[4\][5]
*799 x\[4\][4]
*800 x\[4\][3]
*801 x\[4\][2]
*802 x\[4\][1]
*803 x\[4\][0]
*804 x\[5\][16]
*805 x\[5\][15]
*806 x\[5\][14]
*807 x\[5\][13]
*808 x\[5\][12]
*809 x\[5\][11]
*810 x\[5\][10]
*811 x\[5\][9]
*812 x\[5\][8]
*813 x\[5\][7]
*814 x\[5\][6]
*815 x\[5\][5]
*816 x\[5\][4]
*817 x\[5\][3]
*818 x\[5\][2]
*819 x\[5\][1]
*820 x\[5\][0]
*821 x\[6\][16]
*822 x\[6\][15]
*823 x\[6\][14]
*824 x\[6\][13]
*825 x\[6\][12]
*826 x\[6\][11]
*827 x\[6\][10]
*828 x\[6\][9]
*829 x\[6\][8]
*830 x\[6\][7]
*831 x\[6\][6]
*832 x\[6\][5]
*833 x\[6\][4]
*834 x\[6\][3]
*835 x\[6\][2]
*836 x\[6\][1]
*837 x\[6\][0]
*838 x\[7\][16]
*839 x\[7\][15]
*840 x\[7\][14]
*841 x\[7\][13]
*842 x\[7\][12]
*843 x\[7\][11]
*844 x\[7\][10]
*845 x\[7\][9]
*846 x\[7\][8]
*847 x\[7\][7]
*848 x\[7\][6]
*849 x\[7\][5]
*850 x\[7\][4]
*851 x\[7\][3]
*852 x\[7\][2]
*853 x\[7\][1]
*854 x\[7\][0]
*855 x\[8\][16]
*856 x\[8\][15]
*857 x\[8\][14]
*858 x\[8\][13]
*859 x\[8\][12]
*860 x\[8\][11]
*861 x\[8\][10]
*862 x\[8\][9]
*863 x\[8\][8]
*864 x\[8\][7]
*865 x\[8\][6]
*866 x\[8\][5]
*867 x\[8\][4]
*868 x\[8\][3]
*869 x\[8\][2]
*870 x\[8\][1]
*871 x\[8\][0]
*872 x\[9\][16]
*873 x\[9\][15]
*874 x\[9\][14]
*875 x\[9\][13]
*876 x\[9\][12]
*877 x\[9\][11]
*878 x\[9\][10]
*879 x\[9\][9]
*880 x\[9\][8]
*881 x\[9\][7]
*882 x\[9\][6]
*883 x\[9\][5]
*884 x\[9\][4]
*885 x\[9\][3]
*886 x\[9\][2]
*887 x\[9\][1]
*888 x\[9\][0]
*889 x\[10\][16]
*890 x\[10\][15]
*891 x\[10\][14]
*892 x\[10\][13]
*893 x\[10\][12]
*894 x\[10\][11]
*895 x\[10\][10]
*896 x\[10\][9]
*897 x\[10\][8]
*898 x\[10\][7]
*899 x\[10\][6]
*900 x\[10\][5]
*901 x\[10\][4]
*902 x\[10\][3]
*903 x\[10\][2]
*904 x\[10\][1]
*905 x\[10\][0]
*906 x\[11\][16]
*907 x\[11\][15]
*908 x\[11\][14]
*909 x\[11\][13]
*910 x\[11\][12]
*911 x\[11\][11]
*912 x\[11\][10]
*913 x\[11\][9]
*914 x\[11\][8]
*915 x\[11\][7]
*916 x\[11\][6]
*917 x\[11\][5]
*918 x\[11\][4]
*919 x\[11\][3]
*920 x\[11\][2]
*921 x\[11\][1]
*922 x\[11\][0]
*923 x\[12\][16]
*924 x\[12\][15]
*925 x\[12\][14]
*926 x\[12\][12]
*927 x\[12\][11]
*928 x\[12\][10]
*929 x\[12\][9]
*930 x\[12\][8]
*931 x\[12\][7]
*932 x\[12\][6]
*933 x\[12\][5]
*934 x\[12\][4]
*935 x\[12\][3]
*936 x\[12\][2]
*937 x\[12\][1]
*938 x\[12\][0]
*939 x\[13\][16]
*940 x\[13\][15]
*941 x\[13\][14]
*942 x\[13\][13]
*943 x\[13\][12]
*944 x\[13\][11]
*945 x\[13\][10]
*946 x\[13\][9]
*947 x\[13\][8]
*948 x\[13\][7]
*949 x\[13\][6]
*950 x\[13\][5]
*951 x\[13\][4]
*952 x\[13\][3]
*953 x\[13\][2]
*954 x\[13\][1]
*955 x\[13\][0]
*956 x\[14\][16]
*957 x\[14\][15]
*958 x\[14\][14]
*959 x\[14\][13]
*960 x\[14\][12]
*961 x\[14\][11]
*962 x\[14\][10]
*963 x\[14\][9]
*964 x\[14\][8]
*965 x\[14\][7]
*966 x\[14\][5]
*967 x\[14\][4]
*968 x\[14\][3]
*969 x\[14\][2]
*970 x\[14\][1]
*971 x\[14\][0]
*972 genblk1\[2\]\.U_add_241_20_Y_sub_245_20_n_1
*973 genblk1\[2\]\.U_add_241_20_Y_sub_245_20_n_2
*974 genblk1\[2\]\.U_add_241_20_Y_sub_245_20_n_3
*975 genblk1\[2\]\.U_add_241_20_Y_sub_245_20_n_4
*976 genblk1\[2\]\.U_add_241_20_Y_sub_245_20_n_5
*977 genblk1\[2\]\.U_add_241_20_Y_sub_245_20_n_6
*978 genblk1\[2\]\.U_add_241_20_Y_sub_245_20_n_7
*979 genblk1\[2\]\.U_add_241_20_Y_sub_245_20_n_8
*980 genblk1\[2\]\.U_add_241_20_Y_sub_245_20_n_9
*981 genblk1\[2\]\.U_add_241_20_Y_sub_245_20_n_10
*982 genblk1\[2\]\.U_add_241_20_Y_sub_245_20_n_11
*983 genblk1\[2\]\.U_add_241_20_Y_sub_245_20_n_12
*984 genblk1\[2\]\.U_add_241_20_Y_sub_245_20_n_13
*985 genblk1\[2\]\.U_add_241_20_Y_sub_245_20_n_14
*986 genblk1\[2\]\.U_add_241_20_Y_sub_245_20_n_15
*987 genblk1\[2\]\.U_add_241_20_Y_sub_245_20_n_16
*988 genblk1\[2\]\.U_add_241_20_Y_sub_245_20_n_17
*989 genblk1\[2\]\.U_add_241_20_Y_sub_245_20_n_19
*990 genblk1\[2\]\.U_add_241_20_Y_sub_245_20_n_21
*991 genblk1\[2\]\.U_add_241_20_Y_sub_245_20_n_23
*992 genblk1\[2\]\.U_add_241_20_Y_sub_245_20_n_25
*993 genblk1\[2\]\.U_add_241_20_Y_sub_245_20_n_27
*994 genblk1\[2\]\.U_add_241_20_Y_sub_245_20_n_29
*995 genblk1\[2\]\.U_add_241_20_Y_sub_245_20_n_31
*996 genblk1\[2\]\.U_add_241_20_Y_sub_245_20_n_33
*997 genblk1\[2\]\.U_add_241_20_Y_sub_245_20_n_35
*998 genblk1\[2\]\.U_add_241_20_Y_sub_245_20_n_37
*999 genblk1\[2\]\.U_add_241_20_Y_sub_245_20_n_39
*1000 genblk1\[2\]\.U_add_241_20_Y_sub_245_20_n_41
*1001 genblk1\[2\]\.U_add_241_20_Y_sub_245_20_n_43
*1002 genblk1\[2\]\.U_add_241_20_Y_sub_245_20_n_45
*1003 genblk1\[2\]\.U_add_241_20_Y_sub_245_20_n_47
*1004 genblk1\[2\]\.U_add_246_20_Y_sub_242_20_n_1
*1005 genblk1\[2\]\.U_add_246_20_Y_sub_242_20_n_2
*1006 genblk1\[2\]\.U_add_246_20_Y_sub_242_20_n_3
*1007 genblk1\[2\]\.U_add_246_20_Y_sub_242_20_n_4
*1008 genblk1\[2\]\.U_add_246_20_Y_sub_242_20_n_5
*1009 genblk1\[2\]\.U_add_246_20_Y_sub_242_20_n_6
*1010 genblk1\[2\]\.U_add_246_20_Y_sub_242_20_n_7
*1011 genblk1\[2\]\.U_add_246_20_Y_sub_242_20_n_8
*1012 genblk1\[2\]\.U_add_246_20_Y_sub_242_20_n_9
*1013 genblk1\[2\]\.U_add_246_20_Y_sub_242_20_n_10
*1014 genblk1\[2\]\.U_add_246_20_Y_sub_242_20_n_11
*1015 genblk1\[2\]\.U_add_246_20_Y_sub_242_20_n_12
*1016 genblk1\[2\]\.U_add_246_20_Y_sub_242_20_n_13
*1017 genblk1\[2\]\.U_add_246_20_Y_sub_242_20_n_14
*1018 genblk1\[2\]\.U_add_246_20_Y_sub_242_20_n_15
*1019 genblk1\[2\]\.U_add_246_20_Y_sub_242_20_n_16
*1020 genblk1\[2\]\.U_add_246_20_Y_sub_242_20_n_17
*1021 genblk1\[2\]\.U_add_246_20_Y_sub_242_20_n_19
*1022 genblk1\[2\]\.U_add_246_20_Y_sub_242_20_n_21
*1023 genblk1\[2\]\.U_add_246_20_Y_sub_242_20_n_23
*1024 genblk1\[2\]\.U_add_246_20_Y_sub_242_20_n_25
*1025 genblk1\[2\]\.U_add_246_20_Y_sub_242_20_n_27
*1026 genblk1\[2\]\.U_add_246_20_Y_sub_242_20_n_29
*1027 genblk1\[2\]\.U_add_246_20_Y_sub_242_20_n_31
*1028 genblk1\[2\]\.U_add_246_20_Y_sub_242_20_n_33
*1029 genblk1\[2\]\.U_add_246_20_Y_sub_242_20_n_35
*1030 genblk1\[2\]\.U_add_246_20_Y_sub_242_20_n_37
*1031 genblk1\[2\]\.U_add_246_20_Y_sub_242_20_n_39
*1032 genblk1\[2\]\.U_add_246_20_Y_sub_242_20_n_41
*1033 genblk1\[2\]\.U_add_246_20_Y_sub_242_20_n_43
*1034 genblk1\[2\]\.U_add_246_20_Y_sub_242_20_n_45
*1035 genblk1\[2\]\.U_add_246_20_Y_sub_242_20_n_47
*1036 genblk1\[2\]\.U_n_49
*1037 genblk1\[2\]\.U_n_230
*1038 genblk1\[2\]\.U_n_231
*1039 genblk1\[2\]\.U_n_232
*1040 genblk1\[2\]\.U_n_233
*1041 genblk1\[2\]\.U_n_234
*1042 genblk1\[2\]\.U_n_235
*1043 genblk1\[2\]\.U_n_236
*1044 genblk1\[2\]\.U_n_237
*1045 genblk1\[2\]\.U_n_238
*1046 genblk1\[2\]\.U_n_239
*1047 genblk1\[2\]\.U_n_240
*1048 genblk1\[2\]\.U_n_241
*1049 genblk1\[2\]\.U_n_242
*1050 genblk1\[2\]\.U_n_243
*1051 genblk1\[2\]\.U_n_244
*1052 genblk1\[2\]\.U_n_245
*1053 genblk1\[2\]\.U_n_246
*1054 genblk1\[2\]\.U_n_281
*1055 genblk1\[2\]\.U_n_282
*1056 genblk1\[2\]\.U_n_283
*1057 genblk1\[2\]\.U_n_284
*1058 genblk1\[2\]\.U_n_285
*1059 genblk1\[2\]\.U_n_286
*1060 genblk1\[2\]\.U_n_287
*1061 genblk1\[2\]\.U_n_288
*1062 genblk1\[2\]\.U_n_289
*1063 genblk1\[2\]\.U_n_290
*1064 genblk1\[2\]\.U_n_291
*1065 genblk1\[2\]\.U_n_292
*1066 genblk1\[2\]\.U_n_293
*1067 genblk1\[2\]\.U_n_294
*1068 genblk1\[2\]\.U_n_295
*1069 genblk1\[2\]\.U_n_296
*1070 genblk1\[2\]\.U_n_297
*1071 genblk1\[2\]\.U_n_1164
*1072 genblk1\[2\]\.U_n_1194
*1073 genblk1\[2\]\.U_n_1195
*1074 genblk1\[2\]\.U_n_1206
*1075 genblk1\[3\]\.U_add_241_20_Y_sub_245_20_n_1
*1076 genblk1\[3\]\.U_add_241_20_Y_sub_245_20_n_2
*1077 genblk1\[3\]\.U_add_241_20_Y_sub_245_20_n_3
*1078 genblk1\[3\]\.U_add_241_20_Y_sub_245_20_n_4
*1079 genblk1\[3\]\.U_add_241_20_Y_sub_245_20_n_5
*1080 genblk1\[3\]\.U_add_241_20_Y_sub_245_20_n_6
*1081 genblk1\[3\]\.U_add_241_20_Y_sub_245_20_n_7
*1082 genblk1\[3\]\.U_add_241_20_Y_sub_245_20_n_8
*1083 genblk1\[3\]\.U_add_241_20_Y_sub_245_20_n_9
*1084 genblk1\[3\]\.U_add_241_20_Y_sub_245_20_n_10
*1085 genblk1\[3\]\.U_add_241_20_Y_sub_245_20_n_11
*1086 genblk1\[3\]\.U_add_241_20_Y_sub_245_20_n_12
*1087 genblk1\[3\]\.U_add_241_20_Y_sub_245_20_n_13
*1088 genblk1\[3\]\.U_add_241_20_Y_sub_245_20_n_14
*1089 genblk1\[3\]\.U_add_241_20_Y_sub_245_20_n_15
*1090 genblk1\[3\]\.U_add_241_20_Y_sub_245_20_n_16
*1091 genblk1\[3\]\.U_add_241_20_Y_sub_245_20_n_18
*1092 genblk1\[3\]\.U_add_241_20_Y_sub_245_20_n_20
*1093 genblk1\[3\]\.U_add_241_20_Y_sub_245_20_n_22
*1094 genblk1\[3\]\.U_add_241_20_Y_sub_245_20_n_24
*1095 genblk1\[3\]\.U_add_241_20_Y_sub_245_20_n_26
*1096 genblk1\[3\]\.U_add_241_20_Y_sub_245_20_n_28
*1097 genblk1\[3\]\.U_add_241_20_Y_sub_245_20_n_30
*1098 genblk1\[3\]\.U_add_241_20_Y_sub_245_20_n_32
*1099 genblk1\[3\]\.U_add_241_20_Y_sub_245_20_n_34
*1100 genblk1\[3\]\.U_add_241_20_Y_sub_245_20_n_36
*1101 genblk1\[3\]\.U_add_241_20_Y_sub_245_20_n_38
*1102 genblk1\[3\]\.U_add_241_20_Y_sub_245_20_n_40
*1103 genblk1\[3\]\.U_add_241_20_Y_sub_245_20_n_42
*1104 genblk1\[3\]\.U_add_241_20_Y_sub_245_20_n_44
*1105 genblk1\[3\]\.U_add_241_20_Y_sub_245_20_n_46
*1106 genblk1\[3\]\.U_add_246_20_Y_sub_242_20_n_1
*1107 genblk1\[3\]\.U_add_246_20_Y_sub_242_20_n_2
*1108 genblk1\[3\]\.U_add_246_20_Y_sub_242_20_n_3
*1109 genblk1\[3\]\.U_add_246_20_Y_sub_242_20_n_4
*1110 genblk1\[3\]\.U_add_246_20_Y_sub_242_20_n_5
*1111 genblk1\[3\]\.U_add_246_20_Y_sub_242_20_n_6
*1112 genblk1\[3\]\.U_add_246_20_Y_sub_242_20_n_7
*1113 genblk1\[3\]\.U_add_246_20_Y_sub_242_20_n_8
*1114 genblk1\[3\]\.U_add_246_20_Y_sub_242_20_n_9
*1115 genblk1\[3\]\.U_add_246_20_Y_sub_242_20_n_10
*1116 genblk1\[3\]\.U_add_246_20_Y_sub_242_20_n_11
*1117 genblk1\[3\]\.U_add_246_20_Y_sub_242_20_n_12
*1118 genblk1\[3\]\.U_add_246_20_Y_sub_242_20_n_13
*1119 genblk1\[3\]\.U_add_246_20_Y_sub_242_20_n_14
*1120 genblk1\[3\]\.U_add_246_20_Y_sub_242_20_n_15
*1121 genblk1\[3\]\.U_add_246_20_Y_sub_242_20_n_16
*1122 genblk1\[3\]\.U_add_246_20_Y_sub_242_20_n_18
*1123 genblk1\[3\]\.U_add_246_20_Y_sub_242_20_n_20
*1124 genblk1\[3\]\.U_add_246_20_Y_sub_242_20_n_22
*1125 genblk1\[3\]\.U_add_246_20_Y_sub_242_20_n_24
*1126 genblk1\[3\]\.U_add_246_20_Y_sub_242_20_n_26
*1127 genblk1\[3\]\.U_add_246_20_Y_sub_242_20_n_28
*1128 genblk1\[3\]\.U_add_246_20_Y_sub_242_20_n_30
*1129 genblk1\[3\]\.U_add_246_20_Y_sub_242_20_n_32
*1130 genblk1\[3\]\.U_add_246_20_Y_sub_242_20_n_34
*1131 genblk1\[3\]\.U_add_246_20_Y_sub_242_20_n_36
*1132 genblk1\[3\]\.U_add_246_20_Y_sub_242_20_n_38
*1133 genblk1\[3\]\.U_add_246_20_Y_sub_242_20_n_40
*1134 genblk1\[3\]\.U_add_246_20_Y_sub_242_20_n_42
*1135 genblk1\[3\]\.U_add_246_20_Y_sub_242_20_n_44
*1136 genblk1\[3\]\.U_add_246_20_Y_sub_242_20_n_46
*1137 genblk1\[3\]\.U_n_48
*1138 genblk1\[3\]\.U_n_228
*1139 genblk1\[3\]\.U_n_229
*1140 genblk1\[3\]\.U_n_230
*1141 genblk1\[3\]\.U_n_231
*1142 genblk1\[3\]\.U_n_232
*1143 genblk1\[3\]\.U_n_233
*1144 genblk1\[3\]\.U_n_234
*1145 genblk1\[3\]\.U_n_235
*1146 genblk1\[3\]\.U_n_236
*1147 genblk1\[3\]\.U_n_237
*1148 genblk1\[3\]\.U_n_238
*1149 genblk1\[3\]\.U_n_239
*1150 genblk1\[3\]\.U_n_240
*1151 genblk1\[3\]\.U_n_241
*1152 genblk1\[3\]\.U_n_242
*1153 genblk1\[3\]\.U_n_243
*1154 genblk1\[3\]\.U_n_244
*1155 genblk1\[3\]\.U_n_279
*1156 genblk1\[3\]\.U_n_280
*1157 genblk1\[3\]\.U_n_281
*1158 genblk1\[3\]\.U_n_282
*1159 genblk1\[3\]\.U_n_283
*1160 genblk1\[3\]\.U_n_284
*1161 genblk1\[3\]\.U_n_285
*1162 genblk1\[3\]\.U_n_286
*1163 genblk1\[3\]\.U_n_287
*1164 genblk1\[3\]\.U_n_288
*1165 genblk1\[3\]\.U_n_289
*1166 genblk1\[3\]\.U_n_290
*1167 genblk1\[3\]\.U_n_291
*1168 genblk1\[3\]\.U_n_292
*1169 genblk1\[3\]\.U_n_293
*1170 genblk1\[3\]\.U_n_294
*1171 genblk1\[3\]\.U_n_295
*1172 genblk1\[3\]\.U_n_1167
*1173 genblk1\[3\]\.U_n_1197
*1174 genblk1\[3\]\.U_n_1208
*1175 genblk1\[3\]\.U_n_1215
*1176 genblk1\[4\]\.U_add_241_20_Y_sub_245_20_n_1
*1177 genblk1\[4\]\.U_add_241_20_Y_sub_245_20_n_2
*1178 genblk1\[4\]\.U_add_241_20_Y_sub_245_20_n_3
*1179 genblk1\[4\]\.U_add_241_20_Y_sub_245_20_n_4
*1180 genblk1\[4\]\.U_add_241_20_Y_sub_245_20_n_5
*1181 genblk1\[4\]\.U_add_241_20_Y_sub_245_20_n_6
*1182 genblk1\[4\]\.U_add_241_20_Y_sub_245_20_n_7
*1183 genblk1\[4\]\.U_add_241_20_Y_sub_245_20_n_8
*1184 genblk1\[4\]\.U_add_241_20_Y_sub_245_20_n_9
*1185 genblk1\[4\]\.U_add_241_20_Y_sub_245_20_n_10
*1186 genblk1\[4\]\.U_add_241_20_Y_sub_245_20_n_11
*1187 genblk1\[4\]\.U_add_241_20_Y_sub_245_20_n_12
*1188 genblk1\[4\]\.U_add_241_20_Y_sub_245_20_n_13
*1189 genblk1\[4\]\.U_add_241_20_Y_sub_245_20_n_14
*1190 genblk1\[4\]\.U_add_241_20_Y_sub_245_20_n_15
*1191 genblk1\[4\]\.U_add_241_20_Y_sub_245_20_n_17
*1192 genblk1\[4\]\.U_add_241_20_Y_sub_245_20_n_19
*1193 genblk1\[4\]\.U_add_241_20_Y_sub_245_20_n_21
*1194 genblk1\[4\]\.U_add_241_20_Y_sub_245_20_n_23
*1195 genblk1\[4\]\.U_add_241_20_Y_sub_245_20_n_25
*1196 genblk1\[4\]\.U_add_241_20_Y_sub_245_20_n_27
*1197 genblk1\[4\]\.U_add_241_20_Y_sub_245_20_n_29
*1198 genblk1\[4\]\.U_add_241_20_Y_sub_245_20_n_31
*1199 genblk1\[4\]\.U_add_241_20_Y_sub_245_20_n_33
*1200 genblk1\[4\]\.U_add_241_20_Y_sub_245_20_n_35
*1201 genblk1\[4\]\.U_add_241_20_Y_sub_245_20_n_37
*1202 genblk1\[4\]\.U_add_241_20_Y_sub_245_20_n_39
*1203 genblk1\[4\]\.U_add_241_20_Y_sub_245_20_n_41
*1204 genblk1\[4\]\.U_add_241_20_Y_sub_245_20_n_43
*1205 genblk1\[4\]\.U_add_241_20_Y_sub_245_20_n_45
*1206 genblk1\[4\]\.U_add_246_20_Y_sub_242_20_n_1
*1207 genblk1\[4\]\.U_add_246_20_Y_sub_242_20_n_2
*1208 genblk1\[4\]\.U_add_246_20_Y_sub_242_20_n_3
*1209 genblk1\[4\]\.U_add_246_20_Y_sub_242_20_n_4
*1210 genblk1\[4\]\.U_add_246_20_Y_sub_242_20_n_5
*1211 genblk1\[4\]\.U_add_246_20_Y_sub_242_20_n_6
*1212 genblk1\[4\]\.U_add_246_20_Y_sub_242_20_n_7
*1213 genblk1\[4\]\.U_add_246_20_Y_sub_242_20_n_8
*1214 genblk1\[4\]\.U_add_246_20_Y_sub_242_20_n_9
*1215 genblk1\[4\]\.U_add_246_20_Y_sub_242_20_n_10
*1216 genblk1\[4\]\.U_add_246_20_Y_sub_242_20_n_11
*1217 genblk1\[4\]\.U_add_246_20_Y_sub_242_20_n_12
*1218 genblk1\[4\]\.U_add_246_20_Y_sub_242_20_n_13
*1219 genblk1\[4\]\.U_add_246_20_Y_sub_242_20_n_14
*1220 genblk1\[4\]\.U_add_246_20_Y_sub_242_20_n_15
*1221 genblk1\[4\]\.U_add_246_20_Y_sub_242_20_n_17
*1222 genblk1\[4\]\.U_add_246_20_Y_sub_242_20_n_19
*1223 genblk1\[4\]\.U_add_246_20_Y_sub_242_20_n_21
*1224 genblk1\[4\]\.U_add_246_20_Y_sub_242_20_n_23
*1225 genblk1\[4\]\.U_add_246_20_Y_sub_242_20_n_25
*1226 genblk1\[4\]\.U_add_246_20_Y_sub_242_20_n_27
*1227 genblk1\[4\]\.U_add_246_20_Y_sub_242_20_n_29
*1228 genblk1\[4\]\.U_add_246_20_Y_sub_242_20_n_31
*1229 genblk1\[4\]\.U_add_246_20_Y_sub_242_20_n_33
*1230 genblk1\[4\]\.U_add_246_20_Y_sub_242_20_n_35
*1231 genblk1\[4\]\.U_add_246_20_Y_sub_242_20_n_37
*1232 genblk1\[4\]\.U_add_246_20_Y_sub_242_20_n_39
*1233 genblk1\[4\]\.U_add_246_20_Y_sub_242_20_n_41
*1234 genblk1\[4\]\.U_add_246_20_Y_sub_242_20_n_43
*1235 genblk1\[4\]\.U_add_246_20_Y_sub_242_20_n_45
*1236 genblk1\[4\]\.U_n_47
*1237 genblk1\[4\]\.U_n_226
*1238 genblk1\[4\]\.U_n_227
*1239 genblk1\[4\]\.U_n_228
*1240 genblk1\[4\]\.U_n_229
*1241 genblk1\[4\]\.U_n_230
*1242 genblk1\[4\]\.U_n_231
*1243 genblk1\[4\]\.U_n_232
*1244 genblk1\[4\]\.U_n_233
*1245 genblk1\[4\]\.U_n_234
*1246 genblk1\[4\]\.U_n_235
*1247 genblk1\[4\]\.U_n_236
*1248 genblk1\[4\]\.U_n_237
*1249 genblk1\[4\]\.U_n_238
*1250 genblk1\[4\]\.U_n_239
*1251 genblk1\[4\]\.U_n_240
*1252 genblk1\[4\]\.U_n_241
*1253 genblk1\[4\]\.U_n_242
*1254 genblk1\[4\]\.U_n_277
*1255 genblk1\[4\]\.U_n_278
*1256 genblk1\[4\]\.U_n_279
*1257 genblk1\[4\]\.U_n_280
*1258 genblk1\[4\]\.U_n_281
*1259 genblk1\[4\]\.U_n_282
*1260 genblk1\[4\]\.U_n_283
*1261 genblk1\[4\]\.U_n_284
*1262 genblk1\[4\]\.U_n_285
*1263 genblk1\[4\]\.U_n_286
*1264 genblk1\[4\]\.U_n_287
*1265 genblk1\[4\]\.U_n_288
*1266 genblk1\[4\]\.U_n_289
*1267 genblk1\[4\]\.U_n_290
*1268 genblk1\[4\]\.U_n_291
*1269 genblk1\[4\]\.U_n_292
*1270 genblk1\[4\]\.U_n_293
*1271 genblk1\[5\]\.U_add_241_20_Y_sub_245_20_n_1
*1272 genblk1\[5\]\.U_add_241_20_Y_sub_245_20_n_2
*1273 genblk1\[5\]\.U_add_241_20_Y_sub_245_20_n_3
*1274 genblk1\[5\]\.U_add_241_20_Y_sub_245_20_n_4
*1275 genblk1\[5\]\.U_add_241_20_Y_sub_245_20_n_5
*1276 genblk1\[5\]\.U_add_241_20_Y_sub_245_20_n_6
*1277 genblk1\[5\]\.U_add_241_20_Y_sub_245_20_n_7
*1278 genblk1\[5\]\.U_add_241_20_Y_sub_245_20_n_8
*1279 genblk1\[5\]\.U_add_241_20_Y_sub_245_20_n_9
*1280 genblk1\[5\]\.U_add_241_20_Y_sub_245_20_n_10
*1281 genblk1\[5\]\.U_add_241_20_Y_sub_245_20_n_11
*1282 genblk1\[5\]\.U_add_241_20_Y_sub_245_20_n_12
*1283 genblk1\[5\]\.U_add_241_20_Y_sub_245_20_n_13
*1284 genblk1\[5\]\.U_add_241_20_Y_sub_245_20_n_14
*1285 genblk1\[5\]\.U_add_241_20_Y_sub_245_20_n_16
*1286 genblk1\[5\]\.U_add_241_20_Y_sub_245_20_n_18
*1287 genblk1\[5\]\.U_add_241_20_Y_sub_245_20_n_20
*1288 genblk1\[5\]\.U_add_241_20_Y_sub_245_20_n_22
*1289 genblk1\[5\]\.U_add_241_20_Y_sub_245_20_n_24
*1290 genblk1\[5\]\.U_add_241_20_Y_sub_245_20_n_26
*1291 genblk1\[5\]\.U_add_241_20_Y_sub_245_20_n_28
*1292 genblk1\[5\]\.U_add_241_20_Y_sub_245_20_n_30
*1293 genblk1\[5\]\.U_add_241_20_Y_sub_245_20_n_32
*1294 genblk1\[5\]\.U_add_241_20_Y_sub_245_20_n_34
*1295 genblk1\[5\]\.U_add_241_20_Y_sub_245_20_n_36
*1296 genblk1\[5\]\.U_add_241_20_Y_sub_245_20_n_38
*1297 genblk1\[5\]\.U_add_241_20_Y_sub_245_20_n_40
*1298 genblk1\[5\]\.U_add_241_20_Y_sub_245_20_n_42
*1299 genblk1\[5\]\.U_add_241_20_Y_sub_245_20_n_44
*1300 genblk1\[5\]\.U_add_246_20_Y_sub_242_20_n_1
*1301 genblk1\[5\]\.U_add_246_20_Y_sub_242_20_n_2
*1302 genblk1\[5\]\.U_add_246_20_Y_sub_242_20_n_3
*1303 genblk1\[5\]\.U_add_246_20_Y_sub_242_20_n_4
*1304 genblk1\[5\]\.U_add_246_20_Y_sub_242_20_n_5