*SPEF "IEEE 1481-1998"
*DESIGN "cordic"
*DATE "Sat Feb  3 23:09:34 2024"
*VENDOR "Cadence Design Systems, Inc."
*PROGRAM "Innovus"
*VERSION "16.26-s040_1"
*DESIGN_FLOW "PIN_CAP NONE" "NAME_SCOPE LOCAL"
*DIVIDER /
*DELIMITER :
*BUS_DELIMITER []
*T_UNIT 1 NS
*C_UNIT 1 PF
*R_UNIT 1 OHM
*L_UNIT 1 HENRY

// MMMC spef file for corner 'rccorners'

*NAME_MAP

*1 FE_OFN91_FE_OFN24_SE
*2 FE_OFN89_n_1097
*3 FE_OFN90_y_8__12
*4 FE_OFN88_n_851
*5 genblk1\[0\]\.U/FE_OFN89_x_1__15
*6 FE_OFN88_x_2__3
*7 CTS_260
*8 CTS_259
*9 CTS_258
*10 CTS_257
*11 CTS_256
*12 CTS_255
*13 CTS_254
*14 CTS_253
*15 CTS_252
*16 CTS_251
*17 CTS_250
*18 CTS_249
*19 CTS_248
*20 CTS_247
*21 CTS_246
*22 CTS_245
*23 CTS_244
*24 CTS_243
*25 CTS_242
*26 CTS_241
*27 CTS_240
*28 CTS_239
*29 CTS_238
*30 CTS_237
*31 CTS_236
*32 CTS_235
*33 CTS_234
*34 CTS_233
*35 CTS_232
*36 CTS_231
*37 CTS_230
*38 CTS_229
*39 CTS_228
*40 CTS_227
*41 CTS_226
*42 CTS_225
*43 CTS_224
*44 CTS_223
*45 CTS_222
*46 CTS_221
*47 CTS_220
*48 CTS_219
*49 CTS_218
*50 CTS_217
*51 CTS_216
*52 CTS_215
*53 CTS_214
*54 CTS_213
*55 CTS_212
*56 CTS_211
*57 CTS_210
*58 CTS_209
*59 CTS_208
*60 CTS_207
*61 CTS_206
*62 CTS_205
*63 CTS_204
*64 CTS_203
*65 CTS_202
*66 CTS_201
*67 CTS_200
*68 CTS_199
*69 CTS_198
*70 CTS_197
*71 CTS_196
*72 CTS_195
*73 FE_OFN87_n
*74 FE_OFN86_FE_OFN29_SE
*75 FE_OFN86_n_708
*76 FE_OFN85_n_531
*77 FE_OFN80_n_761
*78 FE_OFN77_n_549
*79 FE_OFN75_n_1064
*80 FE_OFN74_n_834
*81 FE_OFN73_n_749
*82 FE_OFN71_n_551
*83 genblk1\[1\]\.U/FE_OFN70_n_99
*84 genblk1\[0\]\.U/FE_OFN69_n_153
*85 FE_OFN68_n_1206
*86 genblk1\[1\]\.U/FE_OFN66_n_0
*87 FE_OFN63_n_518
*88 FE_OFN61_n_1269
*89 FE_OFN60_n_725
*90 FE_OFN54_x_7__10
*91 FE_OFN52_z_14__16
*92 FE_OFN51_z_13__2
*93 FE_OFN50_z_13__16
*94 FE_OFN48_z_12__16
*95 FE_OFN47_z_11__16
*96 FE_OFN46_z_10__16
*97 FE_OFN45_z_9__16
*98 FE_OFN44_z_8__16
*99 FE_OFN42_z_7__8
*100 FE_OFN41_z_7__16
*101 FE_OFN40_z_6__1
*102 FE_OFN39_z_6__3
*103 FE_OFN38_z_6__16
*104 FE_OFN37_z_5__16
*105 FE_OFN36_z_4__16
*106 FE_OFN35_z_3__16
*107 genblk1\[1\]\.U/FE_OFN34_z_2__16
*108 genblk1\[1\]\.U/FE_OFN33_z_1__16
*109 FE_OFN32_dft_sdo_2
*110 FE_OFN31_dft_sdo_1
*111 FE_OFN30_SE
*112 FE_OFN29_SE
*113 FE_OFN28_SE
*114 FE_OFN27_SE
*115 FE_OFN26_SE
*116 FE_OFN25_SE
*117 FE_OFN24_SE
*118 FE_OFN23_SE
*119 FE_OFN22_SE
*120 FE_OFN21_SE
*121 FE_OFN20_SE
*122 FE_OFN19_SE
*123 FE_OFN18_SE
*124 FE_OFN17_SE
*125 FE_OFN16_SE
*126 FE_OFN15_SE
*127 FE_OFN14_rst
*128 FE_OFN13_rst
*129 FE_OFN12_rst
*130 FE_OFN11_rst
*131 FE_OFN10_rst
*132 FE_OFN9_rst
*133 FE_OFN8_rst
*134 FE_OFN7_rst
*135 FE_OFN6_rst
*136 FE_OFN5_rst
*137 FE_OFN4_rst
*138 FE_OFN3_rst
*139 FE_OFN2_rst
*140 FE_OFN1_rst
*141 FE_OFN0_rst
*142 clk
*143 rst
*144 SE
*145 scan_in
*146 dft_sdi_1
*147 dft_sdi_2
*148 dft_sdi_3
*149 dft_sdi_4
*150 dft_sdi_5
*151 dft_sdi_6
*152 dft_sdi_7
*153 x_i[16]
*154 x_i[15]
*155 x_i[14]
*156 x_i[13]
*157 x_i[12]
*158 x_i[11]
*159 x_i[10]
*160 x_i[9]
*161 x_i[8]
*162 x_i[7]
*163 x_i[6]
*164 x_i[5]
*165 x_i[4]
*166 x_i[3]
*167 x_i[2]
*168 x_i[1]
*169 x_i[0]
*170 y_i[16]
*171 y_i[15]
*172 y_i[14]
*173 y_i[13]
*174 y_i[12]
*175 y_i[11]
*176 y_i[10]
*177 y_i[9]
*178 y_i[8]
*179 y_i[7]
*180 y_i[6]
*181 y_i[5]
*182 y_i[4]
*183 y_i[3]
*184 y_i[2]
*185 y_i[1]
*186 y_i[0]
*187 theta_i[16]
*188 theta_i[15]
*189 theta_i[14]
*190 theta_i[13]
*191 theta_i[12]
*192 theta_i[11]
*193 theta_i[10]
*194 theta_i[9]
*195 theta_i[8]
*196 theta_i[7]
*197 theta_i[6]
*198 theta_i[5]
*199 theta_i[4]
*200 theta_i[3]
*201 theta_i[2]
*202 theta_i[1]
*203 theta_i[0]
*204 x_o[16]
*205 x_o[15]
*206 x_o[14]
*207 x_o[13]
*208 x_o[12]
*209 x_o[11]
*210 x_o[10]
*211 x_o[9]
*212 x_o[8]
*213 x_o[7]
*214 x_o[6]
*215 x_o[5]
*216 x_o[4]
*217 x_o[3]
*218 x_o[2]
*219 x_o[1]
*220 x_o[0]
*221 y_o[16]
*222 y_o[15]
*223 y_o[14]
*224 y_o[13]
*225 y_o[12]
*226 y_o[11]
*227 y_o[10]
*228 y_o[9]
*229 y_o[8]
*230 y_o[7]
*231 y_o[6]
*232 y_o[5]
*233 y_o[4]
*234 y_o[3]
*235 y_o[2]
*236 y_o[1]
*237 y_o[0]
*238 theta_o[15]
*239 theta_o[14]
*240 theta_o[13]
*241 theta_o[12]
*242 theta_o[11]
*243 theta_o[10]
*244 theta_o[9]
*245 theta_o[8]
*246 theta_o[7]
*247 theta_o[6]
*248 theta_o[5]
*249 theta_o[4]
*250 theta_o[3]
*251 theta_o[2]
*252 theta_o[1]
*253 theta_o[0]
*254 scan_out
*255 dft_sdo_1
*256 dft_sdo_2
*257 dft_sdo_3
*258 dft_sdo_4
*259 dft_sdo_5
*260 dft_sdo_6
*261 dft_sdo_7
*262 x\[1\][16]
*263 x\[1\][15]
*264 x\[1\][14]
*265 x\[1\][13]
*266 x\[1\][12]
*267 x\[1\][11]
*268 x\[1\][10]
*269 x\[1\][9]
*270 x\[1\][8]
*271 x\[1\][7]
*272 x\[1\][6]
*273 x\[1\][5]
*274 x\[1\][4]
*275 x\[1\][3]
*276 x\[1\][2]
*277 x\[1\][1]
*278 x\[1\][0]
*279 y\[1\][16]
*280 y\[1\][15]
*281 y\[1\][14]
*282 y\[1\][13]
*283 y\[1\][12]
*284 y\[1\][11]
*285 y\[1\][10]
*286 y\[1\][9]
*287 y\[1\][8]
*288 y\[1\][7]
*289 y\[1\][6]
*290 y\[1\][5]
*291 y\[1\][4]
*292 y\[1\][3]
*293 y\[1\][2]
*294 y\[1\][1]
*295 y\[1\][0]
*296 z\[1\][16]
*297 z\[1\][15]
*298 z\[1\][14]
*299 z\[1\][13]
*300 z\[1\][12]
*301 z\[1\][11]
*302 z\[1\][10]
*303 z\[1\][9]
*304 z\[1\][8]
*305 z\[1\][7]
*306 z\[1\][6]
*307 z\[1\][5]
*308 z\[1\][4]
*309 z\[1\][3]
*310 z\[1\][2]
*311 z\[1\][1]
*312 z\[1\][0]
*313 x\[2\][16]
*314 x\[2\][15]
*315 x\[2\][14]
*316 x\[2\][13]
*317 x\[2\][12]
*318 x\[2\][11]
*319 x\[2\][10]
*320 x\[2\][9]
*321 x\[2\][8]
*322 x\[2\][7]
*323 x\[2\][6]
*324 x\[2\][5]
*325 x\[2\][4]
*326 x\[2\][3]
*327 x\[2\][2]
*328 x\[2\][1]
*329 x\[2\][0]
*330 y\[2\][16]
*331 y\[2\][15]
*332 y\[2\][14]
*333 y\[2\][13]
*334 y\[2\][12]
*335 y\[2\][11]
*336 y\[2\][10]
*337 y\[2\][9]
*338 y\[2\][8]
*339 y\[2\][7]
*340 y\[2\][6]
*341 y\[2\][5]
*342 y\[2\][4]
*343 y\[2\][3]
*344 y\[2\][2]
*345 y\[2\][1]
*346 y\[2\][0]
*347 z\[2\][16]
*348 z\[2\][15]
*349 z\[2\][14]
*350 z\[2\][13]
*351 z\[2\][12]
*352 z\[2\][11]
*353 z\[2\][9]
*354 z\[2\][8]
*355 z\[2\][7]
*356 z\[2\][6]
*357 z\[2\][5]
*358 z\[2\][4]
*359 z\[2\][3]
*360 z\[2\][2]
*361 z\[2\][1]
*362 z\[2\][0]
*363 y\[3\][16]
*364 y\[3\][15]
*365 y\[3\][14]
*366 y\[3\][13]
*367 y\[3\][12]
*368 y\[3\][11]
*369 y\[3\][10]
*370 y\[3\][9]
*371 y\[3\][8]
*372 y\[3\][7]
*373 y\[3\][6]
*374 y\[3\][5]
*375 y\[3\][4]
*376 y\[3\][3]
*377 y\[3\][2]
*378 y\[3\][1]
*379 y\[3\][0]
*380 z\[3\][16]
*381 z\[3\][15]
*382 z\[3\][14]
*383 z\[3\][13]
*384 z\[3\][12]
*385 z\[3\][11]
*386 z\[3\][10]
*387 z\[3\][9]
*388 z\[3\][8]
*389 z\[3\][7]
*390 z\[3\][6]
*391 z\[3\][5]
*392 z\[3\][4]
*393 z\[3\][3]
*394 z\[3\][2]
*395 z\[3\][1]
*396 z\[3\][0]
*397 y\[4\][16]
*398 y\[4\][15]
*399 y\[4\][14]
*400 y\[4\][13]
*401 y\[4\][12]
*402 y\[4\][11]
*403 y\[4\][10]
*404 y\[4\][9]
*405 y\[4\][8]
*406 y\[4\][7]
*407 y\[4\][6]
*408 y\[4\][5]
*409 y\[4\][4]
*410 y\[4\][3]
*411 y\[4\][2]
*412 y\[4\][1]
*413 y\[4\][0]
*414 z\[4\][16]
*415 z\[4\][15]
*416 z\[4\][14]
*417 z\[4\][13]
*418 z\[4\][12]
*419 z\[4\][11]
*420 z\[4\][10]
*421 z\[4\][9]
*422 z\[4\][8]
*423 z\[4\][7]
*424 z\[4\][6]
*425 z\[4\][5]
*426 z\[4\][3]
*427 z\[4\][2]
*428 z\[4\][1]
*429 z\[4\][0]
*430 y\[5\][16]
*431 y\[5\][15]
*432 y\[5\][14]
*433 y\[5\][13]
*434 y\[5\][12]
*435 y\[5\][11]
*436 y\[5\][10]
*437 y\[5\][9]
*438 y\[5\][8]
*439 y\[5\][7]
*440 y\[5\][6]
*441 y\[5\][5]
*442 y\[5\][4]
*443 y\[5\][3]
*444 y\[5\][2]
*445 y\[5\][1]
*446 y\[5\][0]
*447 z\[5\][16]
*448 z\[5\][15]
*449 z\[5\][14]
*450 z\[5\][13]
*451 z\[5\][12]
*452 z\[5\][11]
*453 z\[5\][10]
*454 z\[5\][9]
*455 z\[5\][8]
*456 z\[5\][7]
*457 z\[5\][6]
*458 z\[5\][5]
*459 z\[5\][4]
*460 z\[5\][3]
*461 z\[5\][2]
*462 z\[5\][1]
*463 z\[5\][0]
*464 y\[6\][16]
*465 y\[6\][14]
*466 y\[6\][13]
*467 y\[6\][12]
*468 y\[6\][11]
*469 y\[6\][10]
*470 y\[6\][9]
*471 y\[6\][8]
*472 y\[6\][7]
*473 y\[6\][6]
*474 y\[6\][5]
*475 y\[6\][4]
*476 y\[6\][3]
*477 y\[6\][2]
*478 y\[6\][1]
*479 y\[6\][0]
*480 z\[6\][16]
*481 z\[6\][15]
*482 z\[6\][14]
*483 z\[6\][13]
*484 z\[6\][12]
*485 z\[6\][11]
*486 z\[6\][10]
*487 z\[6\][9]
*488 z\[6\][8]
*489 z\[6\][7]
*490 z\[6\][6]
*491 z\[6\][5]
*492 z\[6\][4]
*493 z\[6\][3]
*494 z\[6\][2]
*495 z\[6\][1]
*496 z\[6\][0]
*497 y\[7\][16]
*498 y\[7\][15]
*499 y\[7\][14]
*500 y\[7\][13]
*501 y\[7\][12]
*502 y\[7\][11]
*503 y\[7\][10]
*504 y\[7\][9]
*505 y\[7\][8]
*506 y\[7\][7]
*507 y\[7\][6]
*508 y\[7\][5]
*509 y\[7\][4]
*510 y\[7\][3]
*511 y\[7\][2]
*512 y\[7\][1]
*513 y\[7\][0]
*514 z\[7\][16]
*515 z\[7\][15]
*516 z\[7\][14]
*517 z\[7\][13]
*518 z\[7\][12]
*519 z\[7\][11]
*520 z\[7\][10]
*521 z\[7\][9]
*522 z\[7\][8]
*523 z\[7\][7]
*524 z\[7\][6]
*525 z\[7\][5]
*526 z\[7\][4]
*527 z\[7\][3]
*528 z\[7\][2]
*529 z\[7\][1]
*530 z\[7\][0]
*531 y\[8\][16]
*532 y\[8\][15]
*533 y\[8\][14]
*534 y\[8\][13]
*535 y\[8\][12]
*536 y\[8\][11]
*537 y\[8\][10]
*538 y\[8\][8]
*539 y\[8\][7]
*540 y\[8\][6]
*541 y\[8\][5]
*542 y\[8\][4]
*543 y\[8\][3]
*544 y\[8\][2]
*545 y\[8\][1]
*546 y\[8\][0]
*547 z\[8\][16]
*548 z\[8\][15]
*549 z\[8\][14]
*550 z\[8\][13]
*551 z\[8\][12]
*552 z\[8\][11]
*553 z\[8\][10]
*554 z\[8\][9]
*555 z\[8\][8]
*556 z\[8\][7]
*557 z\[8\][6]
*558 z\[8\][5]
*559 z\[8\][4]
*560 z\[8\][3]
*561 z\[8\][2]
*562 z\[8\][1]
*563 z\[8\][0]
*564 y\[9\][16]
*565 y\[9\][15]
*566 y\[9\][14]
*567 y\[9\][13]
*568 y\[9\][12]
*569 y\[9\][11]
*570 y\[9\][10]
*571 y\[9\][9]
*572 y\[9\][8]
*573 y\[9\][7]
*574 y\[9\][6]
*575 y\[9\][5]
*576 y\[9\][4]
*577 y\[9\][3]
*578 y\[9\][2]
*579 y\[9\][1]
*580 y\[9\][0]
*581 z\[9\][16]
*582 z\[9\][15]
*583 z\[9\][14]
*584 z\[9\][13]
*585 z\[9\][12]
*586 z\[9\][11]
*587 z\[9\][10]
*588 z\[9\][9]
*589 z\[9\][8]
*590 z\[9\][7]
*591 z\[9\][6]
*592 z\[9\][5]
*593 z\[9\][4]
*594 z\[9\][3]
*595 z\[9\][2]
*596 z\[9\][1]
*597 z\[9\][0]
*598 y\[10\][16]
*599 y\[10\][15]
*600 y\[10\][14]
*601 y\[10\][13]
*602 y\[10\][12]
*603 y\[10\][11]
*604 y\[10\][10]
*605 y\[10\][9]
*606 y\[10\][8]
*607 y\[10\][7]
*608 y\[10\][6]
*609 y\[10\][5]
*610 y\[10\][4]
*611 y\[10\][2]
*612 y\[10\][1]
*613 y\[10\][0]
*614 z\[10\][16]
*615 z\[10\][15]
*616 z\[10\][14]
*617 z\[10\][13]
*618 z\[10\][12]
*619 z\[10\][11]
*620 z\[10\][10]
*621 z\[10\][9]
*622 z\[10\][8]
*623 z\[10\][7]
*624 z\[10\][6]
*625 z\[10\][5]
*626 z\[10\][4]
*627 z\[10\][3]
*628 z\[10\][2]
*629 z\[10\][1]
*630 z\[10\][0]
*631 y\[11\][16]
*632 y\[11\][15]
*633 y\[11\][14]
*634 y\[11\][13]
*635 y\[11\][12]
*636 y\[11\][11]
*637 y\[11\][10]
*638 y\[11\][9]
*639 y\[11\][8]
*640 y\[11\][7]
*641 y\[11\][6]
*642 y\[11\][5]
*643 y\[11\][4]
*644 y\[11\][3]
*645 y\[11\][2]
*646 y\[11\][1]
*647 y\[11\][0]
*648 z\[11\][16]
*649 z\[11\][15]
*650 z\[11\][14]
*651 z\[11\][13]
*652 z\[11\][12]
*653 z\[11\][11]
*654 z\[11\][10]
*655 z\[11\][9]
*656 z\[11\][8]
*657 z\[11\][7]
*658 z\[11\][6]
*659 z\[11\][5]
*660 z\[11\][4]
*661 z\[11\][3]
*662 z\[11\][2]
*663 z\[11\][1]
*664 z\[11\][0]
*665 y\[12\][16]
*666 y\[12\][15]
*667 y\[12\][14]
*668 y\[12\][13]
*669 y\[12\][12]
*670 y\[12\][11]
*671 y\[12\][10]
*672 y\[12\][9]
*673 y\[12\][8]
*674 y\[12\][7]
*675 y\[12\][6]
*676 y\[12\][5]
*677 y\[12\][4]
*678 y\[12\][3]
*679 y\[12\][2]
*680 y\[12\][1]
*681 y\[12\][0]
*682 z\[12\][16]
*683 z\[12\][15]
*684 z\[12\][14]
*685 z\[12\][13]
*686 z\[12\][12]
*687 z\[12\][11]
*688 z\[12\][10]
*689 z\[12\][9]
*690 z\[12\][8]
*691 z\[12\][7]
*692 z\[12\][6]
*693 z\[12\][5]
*694 z\[12\][4]
*695 z\[12\][3]
*696 z\[12\][2]
*697 z\[12\][1]
*698 z\[12\][0]
*699 y\[13\][16]
*700 y\[13\][15]
*701 y\[13\][14]
*702 y\[13\][13]
*703 y\[13\][12]
*704 y\[13\][11]
*705 y\[13\][10]
*706 y\[13\][9]
*707 y\[13\][8]
*708 y\[13\][7]
*709 y\[13\][6]
*710 y\[13\][5]
*711 y\[13\][4]
*712 y\[13\][3]
*713 y\[13\][2]
*714 y\[13\][1]
*715 y\[13\][0]
*716 z\[13\][16]
*717 z\[13\][15]
*718 z\[13\][14]
*719 z\[13\][13]
*720 z\[13\][12]
*721 z\[13\][11]
*722 z\[13\][10]
*723 z\[13\][9]
*724 z\[13\][8]
*725 z\[13\][7]
*726 z\[13\][6]
*727 z\[13\][5]
*728 z\[13\][4]
*729 z\[13\][3]
*730 z\[13\][2]
*731 z\[13\][1]
*732 z\[13\][0]
*733 y\[14\][16]
*734 y\[14\][15]
*735 y\[14\][14]
*736 y\[14\][13]
*737 y\[14\][12]
*738 y\[14\][11]
*739 y\[14\][10]
*740 y\[14\][9]
*741 y\[14\][8]
*742 y\[14\][7]
*743 y\[14\][6]
*744 y\[14\][5]
*745 y\[14\][4]
*746 y\[14\][3]
*747 y\[14\][2]
*748 y\[14\][1]
*749 y\[14\][0]
*750 z\[14\][16]
*751 z\[14\][15]
*752 z\[14\][14]
*753 z\[14\][13]
*754 z\[14\][12]
*755 z\[14\][11]
*756 z\[14\][10]
*757 z\[14\][9]
*758 z\[14\][8]
*759 z\[14\][7]
*760 z\[14\][6]
*761 z\[14\][5]
*762 z\[14\][4]
*763 z\[14\][3]
*764 z\[14\][2]
*765 z\[14\][1]
*766 z\[14\][0]
*767 x\[3\][16]
*768 x\[3\][15]
*769 x\[3\][14]
*770 x\[3\][13]
*771 x\[3\][12]
*772 x\[3\][11]
*773 x\[3\][10]
*774 x\[3\][9]
*775 x\[3\][8]
*776 x\[3\][7]
*777 x\[3\][6]
*778 x\[3\][5]
*779 x\[3\][4]
*780 x\[3\][3]
*781 x\[3\][2]
*782 x\[3\][1]
*783 x\[3\][0]
*784 x\[4\][16]
*785 x\[4\][15]
*786 x\[4\][14]
*787 x\[4\][13]
*788 x\[4\][12]
*789 x\[4\][11]
*790 x\[4\][10]
*791 x\[4\][9]
*792 x\[4\][8]
*793 x\[4\][7]
*794 x\[4\][6]
*795 x\[4\][5]
*796 x\[4\][4]
*797 x\[4\][3]
*798 x\[4\][2]
*799 x\[4\][1]
*800 x\[4\][0]
*801 x\[5\][16]
*802 x\[5\][15]
*803 x\[5\][14]
*804 x\[5\][13]
*805 x\[5\][12]
*806 x\[5\][11]
*807 x\[5\][10]
*808 x\[5\][9]
*809 x\[5\][8]
*810 x\[5\][7]
*811 x\[5\][6]
*812 x\[5\][5]
*813 x\[5\][4]
*814 x\[5\][3]
*815 x\[5\][2]
*816 x\[5\][1]
*817 x\[5\][0]
*818 x\[6\][16]
*819 x\[6\][15]
*820 x\[6\][14]
*821 x\[6\][13]
*822 x\[6\][12]
*823 x\[6\][11]
*824 x\[6\][10]
*825 x\[6\][9]
*826 x\[6\][8]
*827 x\[6\][7]
*828 x\[6\][6]
*829 x\[6\][5]
*830 x\[6\][4]
*831 x\[6\][3]
*832 x\[6\][2]
*833 x\[6\][1]
*834 x\[6\][0]
*835 x\[7\][16]
*836 x\[7\][15]
*837 x\[7\][14]
*838 x\[7\][13]
*839 x\[7\][12]
*840 x\[7\][11]
*841 x\[7\][10]
*842 x\[7\][9]
*843 x\[7\][8]
*844 x\[7\][7]
*845 x\[7\][6]
*846 x\[7\][5]
*847 x\[7\][4]
*848 x\[7\][3]
*849 x\[7\][2]
*850 x\[7\][1]
*851 x\[7\][0]
*852 x\[8\][16]
*853 x\[8\][15]
*854 x\[8\][14]
*855 x\[8\][13]
*856 x\[8\][12]
*857 x\[8\][11]
*858 x\[8\][10]
*859 x\[8\][9]
*860 x\[8\][8]
*861 x\[8\][7]
*862 x\[8\][6]
*863 x\[8\][5]
*864 x\[8\][4]
*865 x\[8\][3]
*866 x\[8\][2]
*867 x\[8\][1]
*868 x\[8\][0]
*869 x\[9\][16]
*870 x\[9\][15]
*871 x\[9\][14]
*872 x\[9\][13]
*873 x\[9\][12]
*874 x\[9\][11]
*875 x\[9\][10]
*876 x\[9\][9]
*877 x\[9\][8]
*878 x\[9\][7]
*879 x\[9\][6]
*880 x\[9\][5]
*881 x\[9\][4]
*882 x\[9\][3]
*883 x\[9\][2]
*884 x\[9\][1]
*885 x\[9\][0]
*886 x\[10\][16]
*887 x\[10\][15]
*888 x\[10\][14]
*889 x\[10\][13]
*890 x\[10\][12]
*891 x\[10\][11]
*892 x\[10\][10]
*893 x\[10\][9]
*894 x\[10\][8]
*895 x\[10\][7]
*896 x\[10\][6]
*897 x\[10\][5]
*898 x\[10\][4]
*899 x\[10\][3]
*900 x\[10\][2]
*901 x\[10\][1]
*902 x\[10\][0]
*903 x\[11\][16]
*904 x\[11\][15]
*905 x\[11\][14]
*906 x\[11\][13]
*907 x\[11\][12]
*908 x\[11\][11]
*909 x\[11\][10]
*910 x\[11\][9]
*911 x\[11\][8]
*912 x\[11\][7]
*913 x\[11\][6]
*914 x\[11\][5]
*915 x\[11\][4]
*916 x\[11\][3]
*917 x\[11\][2]
*918 x\[11\][1]
*919 x\[11\][0]
*920 x\[12\][16]
*921 x\[12\][15]
*922 x\[12\][14]
*923 x\[12\][12]
*924 x\[12\][11]
*925 x\[12\][10]
*926 x\[12\][9]
*927 x\[12\][8]
*928 x\[12\][7]
*929 x\[12\][6]
*930 x\[12\][5]
*931 x\[12\][4]
*932 x\[12\][3]
*933 x\[12\][2]
*934 x\[12\][1]
*935 x\[12\][0]
*936 x\[13\][16]
*937 x\[13\][15]
*938 x\[13\][14]
*939 x\[13\][13]
*940 x\[13\][12]
*941 x\[13\][11]
*942 x\[13\][10]
*943 x\[13\][9]
*944 x\[13\][8]
*945 x\[13\][7]
*946 x\[13\][6]
*947 x\[13\][5]
*948 x\[13\][4]
*949 x\[13\][3]
*950 x\[13\][2]
*951 x\[13\][1]
*952 x\[13\][0]
*953 x\[14\][16]
*954 x\[14\][15]
*955 x\[14\][14]
*956 x\[14\][13]
*957 x\[14\][12]
*958 x\[14\][11]
*959 x\[14\][10]
*960 x\[14\][9]
*961 x\[14\][8]
*962 x\[14\][7]
*963 x\[14\][5]
*964 x\[14\][4]
*965 x\[14\][3]
*966 x\[14\][2]
*967 x\[14\][1]
*968 x\[14\][0]
*969 genblk1\[2\]\.U_add_241_20_Y_sub_245_20_n_1
*970 genblk1\[2\]\.U_add_241_20_Y_sub_245_20_n_2
*971 genblk1\[2\]\.U_add_241_20_Y_sub_245_20_n_3
*972 genblk1\[2\]\.U_add_241_20_Y_sub_245_20_n_4
*973 genblk1\[2\]\.U_add_241_20_Y_sub_245_20_n_5
*974 genblk1\[2\]\.U_add_241_20_Y_sub_245_20_n_6
*975 genblk1\[2\]\.U_add_241_20_Y_sub_245_20_n_7
*976 genblk1\[2\]\.U_add_241_20_Y_sub_245_20_n_8
*977 genblk1\[2\]\.U_add_241_20_Y_sub_245_20_n_9
*978 genblk1\[2\]\.U_add_241_20_Y_sub_245_20_n_10
*979 genblk1\[2\]\.U_add_241_20_Y_sub_245_20_n_11
*980 genblk1\[2\]\.U_add_241_20_Y_sub_245_20_n_12
*981 genblk1\[2\]\.U_add_241_20_Y_sub_245_20_n_13
*982 genblk1\[2\]\.U_add_241_20_Y_sub_245_20_n_14
*983 genblk1\[2\]\.U_add_241_20_Y_sub_245_20_n_15
*984 genblk1\[2\]\.U_add_241_20_Y_sub_245_20_n_16
*985 genblk1\[2\]\.U_add_241_20_Y_sub_245_20_n_17
*986 genblk1\[2\]\.U_add_241_20_Y_sub_245_20_n_19
*987 genblk1\[2\]\.U_add_241_20_Y_sub_245_20_n_21
*988 genblk1\[2\]\.U_add_241_20_Y_sub_245_20_n_23
*989 genblk1\[2\]\.U_add_241_20_Y_sub_245_20_n_25
*990 genblk1\[2\]\.U_add_241_20_Y_sub_245_20_n_27
*991 genblk1\[2\]\.U_add_241_20_Y_sub_245_20_n_29
*992 genblk1\[2\]\.U_add_241_20_Y_sub_245_20_n_31
*993 genblk1\[2\]\.U_add_241_20_Y_sub_245_20_n_33
*994 genblk1\[2\]\.U_add_241_20_Y_sub_245_20_n_35
*995 genblk1\[2\]\.U_add_241_20_Y_sub_245_20_n_37
*996 genblk1\[2\]\.U_add_241_20_Y_sub_245_20_n_39
*997 genblk1\[2\]\.U_add_241_20_Y_sub_245_20_n_41
*998 genblk1\[2\]\.U_add_241_20_Y_sub_245_20_n_43
*999 genblk1\[2\]\.U_add_241_20_Y_sub_245_20_n_45
*1000 genblk1\[2\]\.U_add_241_20_Y_sub_245_20_n_47
*1001 genblk1\[2\]\.U_add_246_20_Y_sub_242_20_n_1
*1002 genblk1\[2\]\.U_add_246_20_Y_sub_242_20_n_2
*1003 genblk1\[2\]\.U_add_246_20_Y_sub_242_20_n_3
*1004 genblk1\[2\]\.U_add_246_20_Y_sub_242_20_n_4
*1005 genblk1\[2\]\.U_add_246_20_Y_sub_242_20_n_5
*1006 genblk1\[2\]\.U_add_246_20_Y_sub_242_20_n_6
*1007 genblk1\[2\]\.U_add_246_20_Y_sub_242_20_n_7
*1008 genblk1\[2\]\.U_add_246_20_Y_sub_242_20_n_8
*1009 genblk1\[2\]\.U_add_246_20_Y_sub_242_20_n_9
*1010 genblk1\[2\]\.U_add_246_20_Y_sub_242_20_n_10
*1011 genblk1\[2\]\.U_add_246_20_Y_sub_242_20_n_11
*1012 genblk1\[2\]\.U_add_246_20_Y_sub_242_20_n_12
*1013 genblk1\[2\]\.U_add_246_20_Y_sub_242_20_n_13
*1014 genblk1\[2\]\.U_add_246_20_Y_sub_242_20_n_14
*1015 genblk1\[2\]\.U_add_246_20_Y_sub_242_20_n_15
*1016 genblk1\[2\]\.U_add_246_20_Y_sub_242_20_n_16
*1017 genblk1\[2\]\.U_add_246_20_Y_sub_242_20_n_17
*1018 genblk1\[2\]\.U_add_246_20_Y_sub_242_20_n_19
*1019 genblk1\[2\]\.U_add_246_20_Y_sub_242_20_n_21
*1020 genblk1\[2\]\.U_add_246_20_Y_sub_242_20_n_23
*1021 genblk1\[2\]\.U_add_246_20_Y_sub_242_20_n_25
*1022 genblk1\[2\]\.U_add_246_20_Y_sub_242_20_n_27
*1023 genblk1\[2\]\.U_add_246_20_Y_sub_242_20_n_29
*1024 genblk1\[2\]\.U_add_246_20_Y_sub_242_20_n_31
*1025 genblk1\[2\]\.U_add_246_20_Y_sub_242_20_n_33
*1026 genblk1\[2\]\.U_add_246_20_Y_sub_242_20_n_35
*1027 genblk1\[2\]\.U_add_246_20_Y_sub_242_20_n_37
*1028 genblk1\[2\]\.U_add_246_20_Y_sub_242_20_n_39
*1029 genblk1\[2\]\.U_add_246_20_Y_sub_242_20_n_41
*1030 genblk1\[2\]\.U_add_246_20_Y_sub_242_20_n_43
*1031 genblk1\[2\]\.U_add_246_20_Y_sub_242_20_n_45
*1032 genblk1\[2\]\.U_add_246_20_Y_sub_242_20_n_47
*1033 genblk1\[2\]\.U_n_49
*1034 genblk1\[2\]\.U_n_230
*1035 genblk1\[2\]\.U_n_231
*1036 genblk1\[2\]\.U_n_232
*1037 genblk1\[2\]\.U_n_233
*1038 genblk1\[2\]\.U_n_234
*1039 genblk1\[2\]\.U_n_235
*1040 genblk1\[2\]\.U_n_236
*1041 genblk1\[2\]\.U_n_237
*1042 genblk1\[2\]\.U_n_238
*1043 genblk1\[2\]\.U_n_239
*1044 genblk1\[2\]\.U_n_240
*1045 genblk1\[2\]\.U_n_241
*1046 genblk1\[2\]\.U_n_242
*1047 genblk1\[2\]\.U_n_243
*1048 genblk1\[2\]\.U_n_244
*1049 genblk1\[2\]\.U_n_245
*1050 genblk1\[2\]\.U_n_246
*1051 genblk1\[2\]\.U_n_281
*1052 genblk1\[2\]\.U_n_282
*1053 genblk1\[2\]\.U_n_283
*1054 genblk1\[2\]\.U_n_284
*1055 genblk1\[2\]\.U_n_285
*1056 genblk1\[2\]\.U_n_286
*1057 genblk1\[2\]\.U_n_287
*1058 genblk1\[2\]\.U_n_288
*1059 genblk1\[2\]\.U_n_289
*1060 genblk1\[2\]\.U_n_290
*1061 genblk1\[2\]\.U_n_291
*1062 genblk1\[2\]\.U_n_292
*1063 genblk1\[2\]\.U_n_293
*1064 genblk1\[2\]\.U_n_294
*1065 genblk1\[2\]\.U_n_295
*1066 genblk1\[2\]\.U_n_296
*1067 genblk1\[2\]\.U_n_297
*1068 genblk1\[2\]\.U_n_938
*1069 genblk1\[2\]\.U_n_1079
*1070 genblk1\[2\]\.U_n_1153
*1071 genblk1\[2\]\.U_n_1167
*1072 genblk1\[3\]\.U_add_241_20_Y_sub_245_20_n_1
*1073 genblk1\[3\]\.U_add_241_20_Y_sub_245_20_n_2
*1074 genblk1\[3\]\.U_add_241_20_Y_sub_245_20_n_3
*1075 genblk1\[3\]\.U_add_241_20_Y_sub_245_20_n_4
*1076 genblk1\[3\]\.U_add_241_20_Y_sub_245_20_n_5
*1077 genblk1\[3\]\.U_add_241_20_Y_sub_245_20_n_6
*1078 genblk1\[3\]\.U_add_241_20_Y_sub_245_20_n_7
*1079 genblk1\[3\]\.U_add_241_20_Y_sub_245_20_n_8
*1080 genblk1\[3\]\.U_add_241_20_Y_sub_245_20_n_9
*1081 genblk1\[3\]\.U_add_241_20_Y_sub_245_20_n_10
*1082 genblk1\[3\]\.U_add_241_20_Y_sub_245_20_n_11
*1083 genblk1\[3\]\.U_add_241_20_Y_sub_245_20_n_12
*1084 genblk1\[3\]\.U_add_241_20_Y_sub_245_20_n_13
*1085 genblk1\[3\]\.U_add_241_20_Y_sub_245_20_n_14
*1086 genblk1\[3\]\.U_add_241_20_Y_sub_245_20_n_15
*1087 genblk1\[3\]\.U_add_241_20_Y_sub_245_20_n_16
*1088 genblk1\[3\]\.U_add_241_20_Y_sub_245_20_n_18
*1089 genblk1\[3\]\.U_add_241_20_Y_sub_245_20_n_20
*1090 genblk1\[3\]\.U_add_241_20_Y_sub_245_20_n_22
*1091 genblk1\[3\]\.U_add_241_20_Y_sub_245_20_n_24
*1092 genblk1\[3\]\.U_add_241_20_Y_sub_245_20_n_26
*1093 genblk1\[3\]\.U_add_241_20_Y_sub_245_20_n_28
*1094 genblk1\[3\]\.U_add_241_20_Y_sub_245_20_n_30
*1095 genblk1\[3\]\.U_add_241_20_Y_sub_245_20_n_32
*1096 genblk1\[3\]\.U_add_241_20_Y_sub_245_20_n_34
*1097 genblk1\[3\]\.U_add_241_20_Y_sub_245_20_n_36
*1098 genblk1\[3\]\.U_add_241_20_Y_sub_245_20_n_38
*1099 genblk1\[3\]\.U_add_241_20_Y_sub_245_20_n_40
*1100 genblk1\[3\]\.U_add_241_20_Y_sub_245_20_n_42
*1101 genblk1\[3\]\.U_add_241_20_Y_sub_245_20_n_44
*1102 genblk1\[3\]\.U_add_241_20_Y_sub_245_20_n_46
*1103 genblk1\[3\]\.U_add_246_20_Y_sub_242_20_n_1
*1104 genblk1\[3\]\.U_add_246_20_Y_sub_242_20_n_2
*1105 genblk1\[3\]\.U_add_246_20_Y_sub_242_20_n_3
*1106 genblk1\[3\]\.U_add_246_20_Y_sub_242_20_n_4
*1107 genblk1\[3\]\.U_add_246_20_Y_sub_242_20_n_5
*1108 genblk1\[3\]\.U_add_246_20_Y_sub_242_20_n_6
*1109 genblk1\[3\]\.U_add_246_20_Y_sub_242_20_n_7
*1110 genblk1\[3\]\.U_add_246_20_Y_sub_242_20_n_8
*1111 genblk1\[3\]\.U_add_246_20_Y_sub_242_20_n_9
*1112 genblk1\[3\]\.U_add_246_20_Y_sub_242_20_n_10
*1113 genblk1\[3\]\.U_add_246_20_Y_sub_242_20_n_11
*1114 genblk1\[3\]\.U_add_246_20_Y_sub_242_20_n_12
*1115 genblk1\[3\]\.U_add_246_20_Y_sub_242_20_n_13
*1116 genblk1\[3\]\.U_add_246_20_Y_sub_242_20_n_14
*1117 genblk1\[3\]\.U_add_246_20_Y_sub_242_20_n_15
*1118 genblk1\[3\]\.U_add_246_20_Y_sub_242_20_n_16
*1119 genblk1\[3\]\.U_add_246_20_Y_sub_242_20_n_18
*1120 genblk1\[3\]\.U_add_246_20_Y_sub_242_20_n_20
*1121 genblk1\[3\]\.U_add_246_20_Y_sub_242_20_n_22
*1122 genblk1\[3\]\.U_add_246_20_Y_sub_242_20_n_24
*1123 genblk1\[3\]\.U_add_246_20_Y_sub_242_20_n_26
*1124 genblk1\[3\]\.U_add_246_20_Y_sub_242_20_n_28
*1125 genblk1\[3\]\.U_add_246_20_Y_sub_242_20_n_30
*1126 genblk1\[3\]\.U_add_246_20_Y_sub_242_20_n_32
*1127 genblk1\[3\]\.U_add_246_20_Y_sub_242_20_n_34
*1128 genblk1\[3\]\.U_add_246_20_Y_sub_242_20_n_36
*1129 genblk1\[3\]\.U_add_246_20_Y_sub_242_20_n_38
*1130 genblk1\[3\]\.U_add_246_20_Y_sub_242_20_n_40
*1131 genblk1\[3\]\.U_add_246_20_Y_sub_242_20_n_42
*1132 genblk1\[3\]\.U_add_246_20_Y_sub_242_20_n_44
*1133 genblk1\[3\]\.U_add_246_20_Y_sub_242_20_n_46
*1134 genblk1\[3\]\.U_n_48
*1135 genblk1\[3\]\.U_n_228
*1136 genblk1\[3\]\.U_n_229
*1137 genblk1\[3\]\.U_n_230
*1138 genblk1\[3\]\.U_n_231
*1139 genblk1\[3\]\.U_n_232
*1140 genblk1\[3\]\.U_n_233
*1141 genblk1\[3\]\.U_n_234
*1142 genblk1\[3\]\.U_n_235
*1143 genblk1\[3\]\.U_n_236
*1144 genblk1\[3\]\.U_n_237
*1145 genblk1\[3\]\.U_n_238
*1146 genblk1\[3\]\.U_n_239
*1147 genblk1\[3\]\.U_n_240
*1148 genblk1\[3\]\.U_n_241
*1149 genblk1\[3\]\.U_n_242
*1150 genblk1\[3\]\.U_n_243
*1151 genblk1\[3\]\.U_n_244
*1152 genblk1\[3\]\.U_n_279
*1153 genblk1\[3\]\.U_n_280
*1154 genblk1\[3\]\.U_n_281
*1155 genblk1\[3\]\.U_n_282
*1156 genblk1\[3\]\.U_n_283
*1157 genblk1\[3\]\.U_n_284
*1158 genblk1\[3\]\.U_n_285
*1159 genblk1\[3\]\.U_n_286
*1160 genblk1\[3\]\.U_n_287
*1161 genblk1\[3\]\.U_n_288
*1162 genblk1\[3\]\.U_n_289
*1163 genblk1\[3\]\.U_n_290
*1164 genblk1\[3\]\.U_n_291
*1165 genblk1\[3\]\.U_n_292
*1166 genblk1\[3\]\.U_n_293
*1167 genblk1\[3\]\.U_n_294
*1168 genblk1\[3\]\.U_n_295
*1169 genblk1\[3\]\.U_n_1183
*1170 genblk1\[3\]\.U_n_1214
*1171 genblk1\[3\]\.U_n_1220
*1172 genblk1\[3\]\.U_n_1223
*1173 genblk1\[3\]\.U_n_1229
*1174 genblk1\[4\]\.U_add_241_20_Y_sub_245_20_n_1
*1175 genblk1\[4\]\.U_add_241_20_Y_sub_245_20_n_2
*1176 genblk1\[4\]\.U_add_241_20_Y_sub_245_20_n_3
*1177 genblk1\[4\]\.U_add_241_20_Y_sub_245_20_n_4
*1178 genblk1\[4\]\.U_add_241_20_Y_sub_245_20_n_5
*1179 genblk1\[4\]\.U_add_241_20_Y_sub_245_20_n_6
*1180 genblk1\[4\]\.U_add_241_20_Y_sub_245_20_n_7
*1181 genblk1\[4\]\.U_add_241_20_Y_sub_245_20_n_8
*1182 genblk1\[4\]\.U_add_241_20_Y_sub_245_20_n_9
*1183 genblk1\[4\]\.U_add_241_20_Y_sub_245_20_n_10
*1184 genblk1\[4\]\.U_add_241_20_Y_sub_245_20_n_11
*1185 genblk1\[4\]\.U_add_241_20_Y_sub_245_20_n_12
*1186 genblk1\[4\]\.U_add_241_20_Y_sub_245_20_n_13
*1187 genblk1\[4\]\.U_add_241_20_Y_sub_245_20_n_14
*1188 genblk1\[4\]\.U_add_241_20_Y_sub_245_20_n_15
*1189 genblk1\[4\]\.U_add_241_20_Y_sub_245_20_n_17
*1190 genblk1\[4\]\.U_add_241_20_Y_sub_245_20_n_19
*1191 genblk1\[4\]\.U_add_241_20_Y_sub_245_20_n_21
*1192 genblk1\[4\]\.U_add_241_20_Y_sub_245_20_n_23
*1193 genblk1\[4\]\.U_add_241_20_Y_sub_245_20_n_25
*1194 genblk1\[4\]\.U_add_241_20_Y_sub_245_20_n_27
*1195 genblk1\[4\]\.U_add_241_20_Y_sub_245_20_n_29
*1196 genblk1\[4\]\.U_add_241_20_Y_sub_245_20_n_31
*1197 genblk1\[4\]\.U_add_241_20_Y_sub_245_20_n_33
*1198 genblk1\[4\]\.U_add_241_20_Y_sub_245_20_n_35
*1199 genblk1\[4\]\.U_add_241_20_Y_sub_245_20_n_37
*1200 genblk1\[4\]\.U_add_241_20_Y_sub_245_20_n_39
*1201 genblk1\[4\]\.U_add_241_20_Y_sub_245_20_n_41
*1202 genblk1\[4\]\.U_add_241_20_Y_sub_245_20_n_43
*1203 genblk1\[4\]\.U_add_241_20_Y_sub_245_20_n_45
*1204 genblk1\[4\]\.U_add_246_20_Y_sub_242_20_n_1
*1205 genblk1\[4\]\.U_add_246_20_Y_sub_242_20_n_2
*1206 genblk1\[4\]\.U_add_246_20_Y_sub_242_20_n_3
*1207 genblk1\[4\]\.U_add_246_20_Y_sub_242_20_n_4
*1208 genblk1\[4\]\.U_add_246_20_Y_sub_242_20_n_5
*1209 genblk1\[4\]\.U_add_246_20_Y_sub_242_20_n_6
*1210 genblk1\[4\]\.U_add_246_20_Y_sub_242_20_n_7
*1211 genblk1\[4\]\.U_add_246_20_Y_sub_242_20_n_8
*1212 genblk1\[4\]\.U_add_246_20_Y_sub_242_20_n_9
*1213 genblk1\[4\]\.U_add_246_20_Y_sub_242_20_n_10
*1214 genblk1\[4\]\.U_add_246_20_Y_sub_242_20_n_11
*1215 genblk1\[4\]\.U_add_246_20_Y_sub_242_20_n_12
*1216 genblk1\[4\]\.U_add_246_20_Y_sub_242_20_n_13
*1217 genblk1\[4\]\.U_add_246_20_Y_sub_242_20_n_14
*1218 genblk1\[4\]\.U_add_246_20_Y_sub_242_20_n_15
*1219 genblk1\[4\]\.U_add_246_20_Y_sub_242_20_n_17
*1220 genblk1\[4\]\.U_add_246_20_Y_sub_242_20_n_19
*1221 genblk1\[4\]\.U_add_246_20_Y_sub_242_20_n_21
*1222 genblk1\[4\]\.U_add_246_20_Y_sub_242_20_n_23
*1223 genblk1\[4\]\.U_add_246_20_Y_sub_242_20_n_25
*1224 genblk1\[4\]\.U_add_246_20_Y_sub_242_20_n_27
*1225 genblk1\[4\]\.U_add_246_20_Y_sub_242_20_n_29
*1226 genblk1\[4\]\.U_add_246_20_Y_sub_242_20_n_31
*1227 genblk1\[4\]\.U_add_246_20_Y_sub_242_20_n_33
*1228 genblk1\[4\]\.U_add_246_20_Y_sub_242_20_n_35
*1229 genblk1\[4\]\.U_add_246_20_Y_sub_242_20_n_37
*1230 genblk1\[4\]\.U_add_246_20_Y_sub_242_20_n_39
*1231 genblk1\[4\]\.U_add_246_20_Y_sub_242_20_n_41
*1232 genblk1\[4\]\.U_add_246_20_Y_sub_242_20_n_43
*1233 genblk1\[4\]\.U_add_246_20_Y_sub_242_20_n_45
*1234 genblk1\[4\]\.U_n_47
*1235 genblk1\[4\]\.U_n_226
*1236 genblk1\[4\]\.U_n_227
*1237 genblk1\[4\]\.U_n_228
*1238 genblk1\[4\]\.U_n_229
*1239 genblk1\[4\]\.U_n_230
*1240 genblk1\[4\]\.U_n_231
*1241 genblk1\[4\]\.U_n_232
*1242 genblk1\[4\]\.U_n_233
*1243 genblk1\[4\]\.U_n_234
*1244 genblk1\[4\]\.U_n_235
*1245 genblk1\[4\]\.U_n_236
*1246 genblk1\[4\]\.U_n_237
*1247 genblk1\[4\]\.U_n_238
*1248 genblk1\[4\]\.U_n_239
*1249 genblk1\[4\]\.U_n_240
*1250 genblk1\[4\]\.U_n_241
*1251 genblk1\[4\]\.U_n_242
*1252 genblk1\[4\]\.U_n_277
*1253 genblk1\[4\]\.U_n_278
*1254 genblk1\[4\]\.U_n_279
*1255 genblk1\[4\]\.U_n_280
*1256 genblk1\[4\]\.U_n_281
*1257 genblk1\[4\]\.U_n_282
*1258 genblk1\[4\]\.U_n_283
*1259 genblk1\[4\]\.U_n_284
*1260 genblk1\[4\]\.U_n_285
*1261 genblk1\[4\]\.U_n_286
*1262 genblk1\[4\]\.U_n_287
*1263 genblk1\[4\]\.U_n_288
*1264 genblk1\[4\]\.U_n_289
*1265 genblk1\[4\]\.U_n_290
*1266 genblk1\[4\]\.U_n_291
*1267 genblk1\[4\]\.U_n_292
*1268 genblk1\[4\]\.U_n_293
*1269 genblk1\[5\]\.U_add_241_20_Y_sub_245_20_n_1
*1270 genblk1\[5\]\.U_add_241_20_Y_sub_245_20_n_2
*1271 genblk1\[5\]\.U_add_241_20_Y_sub_245_20_n_3
*1272 genblk1\[5\]\.U_add_241_20_Y_sub_245_20_n_4
*1273 genblk1\[5\]\.U_add_241_20_Y_sub_245_20_n_5
*1274 genblk1\[5\]\.U_add_241_20_Y_sub_245_20_n_6
*1275 genblk1\[5\]\.U_add_241_20_Y_sub_245_20_n_7
*1276 genblk1\[5\]\.U_add_241_20_Y_sub_245_20_n_8
*1277 genblk1\[5\]\.U_add_241_20_Y_sub_245_20_n_9
*1278 genblk1\[5\]\.U_add_241_20_Y_sub_245_20_n_10
*1279 genblk1\[5\]\.U_add_241_20_Y_sub_245_20_n_11
*1280 genblk1\[5\]\.U_add_241_20_Y_sub_245_20_n_12
*1281 genblk1\[5\]\.U_add_241_20_Y_sub_245_20_n_13
*1282 genblk1\[5\]\.U_add_241_20_Y_sub_245_20_n_14
*1283 genblk1\[5\]\.U_add_241_20_Y_sub_245_20_n_16
*1284 genblk1\[5\]\.U_add_241_20_Y_sub_245_20_n_18
*1285 genblk1\[5\]\.U_add_241_20_Y_sub_245_20_n_20
*1286 genblk1\[5\]\.U_add_241_20_Y_sub_245_20_n_22
*1287 genblk1\[5\]\.U_add_241_20_Y_sub_245_20_n_24
*1288 genblk1\[5\]\.U_add_241_20_Y_sub_245_20_n_26
*1289 genblk1\[5\]\.U_add_241_20_Y_sub_245_20_n_28
*1290 genblk1\[5\]\.U_add_241_20_Y_sub_245_20_n_30
*1291 genblk1\[5\]\.U_add_241_20_Y_sub_245_20_n_32
*1292 genblk1\[5\]\.U_add_241_20_Y_sub_245_20_n_34
*1293 genblk1\[5\]\.U_add_241_20_Y_sub_245_20_n_36
*1294 genblk1\[5\]\.U_add_241_20_Y_sub_245_20_n_38
*1295 genblk1\[5\]\.U_add_241_20_Y_sub_245_20_n_40
*1296 genblk1\[5\]\.U_add_241_20_Y_sub_245_20_n_42
*1297 genblk1\[5\]\.U_add_241_20_Y_sub_245_20_n_44
*1298 genblk1\[5\]\.U_add_246_20_Y_sub_242_20_n_1
*1299 genblk1\[5\]\.U_add_246_20_Y_sub_242_20_n_2
*1300 genblk1\[5\]\.U_add_246_20_Y_sub_242_20_n_3
*1301 genblk1\[5\]\.U_add_246_20_Y_sub_242_20_n_4
*1302 genblk1\[5\]\.U_add_246_20_Y_sub_242_20_n_5
*1303 genblk1\[5\]\.U_add_246_20_Y_sub_242_20_n_6
*1304 genblk1\[5\]\.U_add_246_20_Y_sub_242_20_n_7
*1305 genblk1\[5\]\.U_add_246_20_Y_sub_242_20_n_8
*1306 genblk1\[5\]\.U_add_246_20_Y_sub_242_20_n_9