*SPEF "IEEE 1481-1998"
*DESIGN "counter"
*DATE "Mon Mar 18 14:39:20 2024"
*VENDOR "Cadence Design Systems, Inc."
*PROGRAM "Innovus"
*VERSION "16.26-s040_1"
*DESIGN_FLOW "PIN_CAP NONE" "NAME_SCOPE LOCAL"
*DIVIDER /
*DELIMITER :
*BUS_DELIMITER []
*T_UNIT 1 NS
*C_UNIT 1 PF
*R_UNIT 1 OHM
*L_UNIT 1 HENRY

// MMMC spef file for corner 'rccorners'

*NAME_MAP

*1 clk
*2 rst
*3 SE
*4 scan_in
*5 count[7]
*6 count[6]
*7 count[5]
*8 count[4]
*9 count[3]
*10 count[2]
*11 count[1]
*12 count[0]
*13 n_0
*14 n_1
*15 n_2
*16 n_3
*17 n_4
*18 n_5
*19 n_6
*20 n_7
*21 n_8
*22 n_9
*23 n_10
*24 n_11
*25 n_12
*26 n_13
*27 scan_out
*28 count_reg\[7\]
*29 count_reg\[6\]
*30 count_reg\[5\]
*31 g199__2398
*32 g201__5107
*33 count_reg\[4\]
*34 g203__6260
*35 g204__4319
*36 count_reg\[3\]
*37 count_reg\[2\]
*38 g207__8428
*39 g206__5526
*40 g209__6783
*41 g210__3680
*42 count_reg\[1\]
*43 g212__1617
*44 g213__2802
*45 count_reg\[0\]
*46 g216__1705
*47 g215__5122
*48 g218__8246
*49 g219


*PORTS

*1 I *C 0 10
*2 I *C 9 19
*5 O *C 11 19
*6 O *C 14 19
*7 O *C 8 19
*8 O *C 0 11
*9 O *C 8 0
*10 O *C 8 0
*11 O *C 14 0
*12 O *C 14 0
*3 I *C 22 10
*4 I *C 10 0
*27 O *C 12 19


*D_NET *1 0.00503174

*CONN
*I *36:CK I *C 3 9 *L 0.00021 *D SDFFRHQX1
*P *1 I *C 0 10 *L 0
*I *33:CK I *C 3 12 *L 0.00021 *D SDFFRHQX1
*I *30:CK I *C 7 10 *L 0.00021 *D SDFFRHQX1
*I *37:CK I *C 7 4 *L 0.00021 *D SDFFRHQX1
*I *28:CK I *C 11 12 *L 0.00021 *D SDFFRHQX1
*I *29:CK I *C 14 10 *L 0.00021 *D SDFFRHQX1
*I *45:CK I *C 14 9 *L 0.00021 *D SDFFRHQX1
*I *42:CK I *C 14 5 *L 0.00021 *D SDFFRHQX1

*CAP
1 *1:1 1.53688e-05
2 *1:2 2.17817e-05
3 *36:CK 6.42435e-06
4 *1:4 2.17817e-05
5 *1:5 8.36824e-05
6 *1:6 0.000201128
7 *1:7 0.00012639
8 *1:8 0.000418129
9 *1:9 2.17817e-05
10 *1:10 0.000342711
11 *1 0.000216627
12 *1:12 2.17817e-05
13 *1:13 0.000329874
14 *1:14 0.000393311
15 *1:15 1.53688e-05
16 *1:16 0.000188665
17 *1:17 0.00012639
18 *1:18 3.02982e-05
19 *1:19 0.000371957
20 *33:CK 6.42435e-06
21 *1:22 0.000105036
22 *1:23 0.00012639
23 *1:24 1.34167e-05
24 *1:25 3.46188e-05
25 *1:26 3.02982e-05
26 *1:27 0.000275865
27 *1:28 0.000124479
28 *1:30 1.08966e-05
29 *1:31 3.46188e-05
30 *1:32 0.000137316
31 *1:33 0.000150153
32 *1:34 0.000201128
33 *1:35 0.000124479
34 *30:CK 6.42435e-06
35 *1:38 1.53688e-05
36 *1:39 0.000137316
37 *1:40 0.000150153
38 *1:41 0.000150153
39 *1:42 1.53688e-05
40 *37:CK 6.42435e-06
41 *1:45 1.53688e-05
42 *1:46 1.53688e-05
43 *1:47 0.000150153
44 *28:CK 6.42435e-06
45 *29:CK 6.42435e-06
46 *45:CK 6.42435e-06
47 *1:54 1.53688e-05
48 *42:CK 6.42435e-06

*RES
1 *1:54 *42:CK 8
2 *1:54 *1:55 1.07147
3 *1:47 *1:54 8
4 *1:46 *45:CK 8
5 *1:46 *1:52 1.07147
6 *1:45 *29:CK 8
7 *1:45 *1:50 1.07147
8 *1:42 *28:CK 8
9 *1:42 *1:48 1.07147
10 *1:41 *1:47 7.21412
11 *1:40 *1:46 8
12 *1:39 *1:45 8
13 *1:38 *37:CK 8
14 *1:38 *1:43 1.07147
15 *1:35 *1:42 8
16 *1:34 *1:41 8
17 *1:33 *1:40 7.21412
18 *1:32 *1:39 6.55829
19 *1:31 *1:38 8
20 *1:30 *30:CK 8
21 *1:30 *1:36 1.07147
22 *1:28 *1:35 5.90246
23 *1:27 *1:34 11.2804
24 *1:27 *1:33 8
25 *1:26 *1:32 8
26 *1:25 *1:31 1.31166
27 *1:24 *1:30 8
28 *1:24 *1:29 1.07147
29 *1:23 *1:28 8
30 *1:22 *1:27 4.38682
31 *1:22 *1:26 1.25338
32 *1:19 *1:25 8
33 *1:18 *1:24 8
34 *1:17 *1:23 6.89357
35 *1:16 *1:22 8
36 *1:15 *33:CK 8
37 *1:15 *1:20 1.07147
38 *1:14 *1:19 21.3074
39 *1:14 *1:18 1.25338
40 *1:13 *1:17 8
41 *1:13 *1:16 9.1816
42 *1:12 *1:15 8
43 *1:10 *1:14 8
44 *1:10 *1:13 7.21412
45 *1:9 *1:12 0.655829
46 *1:8 *1 11.0671
47 *1:8 *1:10 9.83743
48 *1:7 *1:9 8
49 *1:6 *1:8 8
50 *1:6 *1:7 6.89357
51 *1:5 *1:6 4.38682
52 *1:4 *1:5 8
53 *1:2 *1:4 0.655829
54 *1:1 *36:CK 8
55 *1:1 *1:2 8
56 *1:0 *1:1 1.07147
*END

*D_NET *2 0.00419325

*CONN
*P *2 I *C 9 19 *L 0
*I *37:RN I *C 8 4 *L 0.000617 *D SDFFRHQX1
*I *28:RN I *C 12 12 *L 0.000617 *D SDFFRHQX1
*I *30:RN I *C 8 10 *L 0.000617 *D SDFFRHQX1
*I *33:RN I *C 4 12 *L 0.000617 *D SDFFRHQX1
*I *36:RN I *C 4 9 *L 0.000617 *D SDFFRHQX1
*I *29:RN I *C 15 10 *L 0.000617 *D SDFFRHQX1
*I *45:RN I *C 15 9 *L 0.000617 *D SDFFRHQX1
*I *42:RN I *C 15 5 *L 0.000617 *D SDFFRHQX1

*CAP
1 *2:0 0.000139665
2 *2:1 8.94825e-05
3 *2:2 0.000150167
4 *2:3 0.000217315
5 *2:4 3.70713e-05
6 *2:5 0.00026988
7 *2:6 0.000166182
8 *2:7 0.000398678
9 *2:8 4.98546e-05
10 *2:9 0.000259379
11 *2:10 4.98805e-05
12 *2:11 3.77105e-05
13 *2 0.000398678
14 *2:13 0.000217315
15 *2:15 4.98805e-05
16 *2:16 0.000152759
17 *2:17 1.99522e-05
18 *2:18 0.000191748
19 *2:20 0.000152759
20 *2:21 1.99522e-05
21 *2:22 1.05012e-05
22 *2:23 3.77105e-05
23 *2:25 0.000190071
24 *2:26 2.55664e-05
25 *2:27 6.98327e-05
26 *2:28 0.000109737
27 *2:29 3.99044e-05
28 *2:32 0.000109737
29 *2:33 8.03338e-05
30 *2:35 3.04534e-05
31 *2:36 7.98088e-05
32 *2:37 7.03577e-05
33 *2:39 8.03338e-05
34 *2:40 8.03338e-05
35 *2:41 6.03817e-05
36 *2:42 4.98805e-05

*RES
1 *2:42 *42:RN 8
2 *2:41 *2:42 3.10461
3 *2:40 *2:41 0.653601
4 *2:39 *2:40 4.34645
5 *2:37 *2:39 0.653601
6 *2:36 *45:RN 8
7 *2:36 *2:37 3.72553
8 *2:35 *2:36 1.24184
9 *2:33 *2:35 0.653601
10 *2:32 *29:RN 8
11 *2:32 *2:33 4.34645
12 *2:29 *2:32 2.48369
13 *2:28 *36:RN 8
14 *2:27 *33:RN 8
15 *2:26 *2:29 8
16 *2:25 *2:28 6.83013
17 *2:25 *2:27 4.34645
18 *2:23 *2:26 1.32565
19 *2:22 *2:25 0.653601
20 *2:21 *30:RN 8
21 *2:20 *2:23 0.629685
22 *2:18 *2:22 8
23 *2:17 *2:21 1.24184
24 *2:16 *2:20 7.29109
25 *2:15 *28:RN 8
26 *2:13 *2:18 9.9424
27 *2:13 *2:17 8
28 *2:11 *2:16 0.629685
29 *2:10 *2:15 3.10461
30 *2:9 *37:RN 8
31 *2:8 *2:13 1.32565
32 *2:7 *2 25.3209
33 *2:6 *2:11 1.32565
34 *2:6 *2:10 8
35 *2:5 *2:9 16.144
36 *2:4 *2:8 1.25937
37 *2:3 *2:7 8
38 *2:3 *2:6 7.29109
39 *2:2 *2:5 0.653601
40 *2:1 *2:4 0.662826
41 *2:1 *2:3 3.97696
42 *2:0 *2:2 8.6929
43 *2:0 *2:1 8
*END

*D_NET *3 0.00351184

*CONN
*I *30:SE I *C 11 10 *L 0.000598 *D SDFFRHQX1
*I *37:SE I *C 11 4 *L 0.000598 *D SDFFRHQX1
*I *28:SE I *C 15 12 *L 0.000598 *D SDFFRHQX1
*I *33:SE I *C 8 12 *L 0.000598 *D SDFFRHQX1
*I *36:SE I *C 8 9 *L 0.000598 *D SDFFRHQX1
*P *3 I *C 22 10 *L 0
*I *29:SE I *C 18 10 *L 0.000598 *D SDFFRHQX1
*I *45:SE I *C 18 9 *L 0.000598 *D SDFFRHQX1
*I *42:SE I *C 18 5 *L 0.000598 *D SDFFRHQX1

*CAP
1 *3:2 0.000191748
2 *3:4 6.39161e-05
3 *3:5 0.000153399
4 *3:6 3.77105e-05
5 *3:7 0.00035914
6 *3:8 1.05012e-05
7 *3:9 0.000203892
8 *3:10 0.00035914
9 *3:11 0.000170119
10 *3:12 0.000380276
11 *3:14 7.03577e-05
12 *3:15 0.000110262
13 *3:16 5.98566e-05
14 *3:17 0.000217214
15 *3:18 2.04773e-05
16 *3:19 2.04773e-05
17 *3:20 5.98566e-05
18 *3:21 0.000199612
19 *3:22 9.03771e-06
20 *3:23 9.9761e-06
21 *3:24 9.9761e-06
22 *3:26 0.000207261
23 *3:27 0.000108452
24 *3:28 9.03771e-06
25 *3 3.63365e-05
26 *3:32 0.000271131
27 *3:34 0.000162679

*RES
1 *3:34 *42:SE 8
2 *3:32 *45:SE 8
3 *3:32 *3:34 11.1018
4 *3:28 *29:SE 8
5 *3:27 *3:32 7.4012
6 *3:26 *3 2.47853
7 *3:24 *36:SE 8
8 *3:23 *33:SE 8
9 *3:22 *3:28 0.616767
10 *3:21 *3:27 8
11 *3:21 *3:26 11.6589
12 *3:20 *28:SE 8
13 *3:19 *3:24 0.620921
14 *3:18 *3:23 0.620921
15 *3:17 *3:22 8
16 *3:17 *3:21 1.95674
17 *3:16 *3:20 3.72553
18 *3:15 *3:19 0.653601
19 *3:14 *3:18 0.653601
20 *3:12 *3:17 9.93182
21 *3:12 *3:16 8
22 *3:11 *3:15 6.20921
23 *3:11 *3:14 3.72553
24 *3:10 *37:SE 8
25 *3:9 *3:12 9.9424
26 *3:8 *3:11 0.653601
27 *3:7 *3:10 22.3532
28 *3:6 *3:9 0.629685
29 *3:5 *3:8 8
30 *3:4 *3:7 8
31 *3:4 *3:6 1.32565
32 *3:2 *3:5 7.95392
33 *3:2 *3:4 1.98848
34 *3:1 *30:SE 8
35 *3:1 *3:2 8
36 *3:0 *3:1 1.07147
*END

*D_NET *4 0.000441049

*CONN
*P *4 I *C 10 0 *L 0
*I *37:SI I *C 11 4 *L 0.000388 *D SDFFRHQX1

*CAP
1 *4 1.8377e-05
2 *4:1 7.08828e-05
3 *4:2 0.000202147
4 *4:3 0.000149641

*RES
1 *4:3 *37:SI 8
2 *4:2 *4:3 9.31382
3 *4:1 *4:2 3.26801
4 *4 *4:1 1.1438
*END

*D_NET *5 0.000955569

*CONN
*I *31:A I *C 12 14 *L 0.000211 *D XNOR2X1
*P *27 O *C 12 19 *L 0
*P *5 O *C 11 19 *L 0
*I *28:Q O *C 10 13 *L 0 *D SDFFRHQX1

*CAP
1 *5:1 3.99044e-05
2 *5:2 8.94825e-05
3 *5:3 5.04055e-05
4 *5:5 8.94825e-05
5 *5:6 0.000219634
6 *5:7 0.000109737
7 *27 0.000228159
8 *5:9 0.000109737
9 *5 1.90267e-05

*RES
1 *5:9 *28:Q 8
2 *27 *5 1.29846
3 *5:7 *5:9 6.83013
4 *5:6 *27 13.5234
5 *5:5 *5:7 8
6 *5:3 *5:6 0.653601
7 *5:2 *5:5 4.63978
8 *5:1 *31:A 8
9 *5:1 *5:3 2.48369
10 *5:1 *5:2 8
11 *5:0 *5:1 1.07147
*END

*D_NET *6 0.00156455

*CONN
*I *34:A I *C 12 15 *L 0.00039 *D NAND2X1
*P *6 O *C 14 19 *L 0
*I *32:A0 I *C 16 14 *L 0.000211 *D OA21X1
*I *29:Q O *C 13 10 *L 0 *D SDFFRHQX1
*I *28:SI I *C 15 12 *L 0.000388 *D SDFFRHQX1

*CAP
1 *6:2 0.000127832
2 *6:4 0.000127832
3 *6:5 0.000249037
4 *6 0.000169228
5 *6:7 0.000139665
6 *6:8 5.11329e-05
7 *6:9 8.08589e-05
8 *6:10 0.000115049
9 *6:11 0.000140715
10 *32:A0 6.39161e-05
11 *6:13 8.97849e-05
12 *6:14 0.000119713
13 *6:15 8.97849e-05

*RES
1 *6:15 *28:SI 8
2 *6:14 *29:Q 8
3 *6:13 *6:15 5.58829
4 *6:11 *6:14 7.45105
5 *6:10 *6:13 8
6 *6:10 *32:A0 3.31413
7 *6:9 *6:11 1.3072
8 *6:8 *6:10 2.65131
9 *6:7 *6:9 3.72553
10 *6:7 *6:8 8
11 *6:5 *6:7 4.96737
12 *6:5 *6 11.0397
13 *6:4 *6:5 8
14 *6:2 *6:4 6.62826
15 *6:1 *34:A 8
16 *6:1 *6:2 8
17 *6:0 *6:1 1.07147
*END

*D_NET *7 0.00132703

*CONN
*I *39:A I *C 9 16 *L 0.000211 *D AND2XL
*P *7 O *C 8 19 *L 0
*I *33:SI I *C 7 12 *L 0.000388 *D SDFFRHQX1
*I *35:A0N I *C 9 14 *L 0.000211 *D AOI2BB1X1
*I *30:Q O *C 6 10 *L 0 *D SDFFRHQX1

*CAP
1 *7:2 7.66993e-05
2 *7:4 7.66993e-05
3 *7:5 0.000278965
4 *7:6 0.000178279
5 *7:7 0.000189546
6 *7 1.90267e-05
7 *7:9 7.66993e-05
8 *7:10 7.98088e-05
9 *7:11 7.66993e-05
10 *7:13 2.04773e-05
11 *7:14 9.9761e-06
12 *7:15 3.04534e-05
13 *7:16 9.9761e-06
14 *7:17 6.19568e-05
15 *7:19 9.18851e-05
16 *7:20 4.98805e-05

*RES
1 *7:20 *30:Q 8
2 *7:19 *7:20 3.10461
3 *7:17 *7:19 2.61441
4 *7:16 *35:A0N 8
5 *7:15 *7:17 1.24184
6 *7:14 *7:16 0.620921
7 *7:13 *7:15 0.653601
8 *7:11 *7:14 8
9 *7:10 *7:13 0.620921
10 *7:10 *33:SI 8
11 *7:9 *7:11 3.97696
12 *7:7 *7:10 4.34645
13 *7:7 *7:9 8
14 *7:6 *7 1.29846
15 *7:5 *7:7 7.45105
16 *7:5 *7:6 10.4188
17 *7:4 *7:5 8
18 *7:2 *7:4 3.97696
19 *7:1 *39:A 8
20 *7:1 *7:2 8
21 *7:0 *7:1 1.07147
*END

*D_NET *8 0.00210372

*CONN
*I *40:A I *C 5 16 *L 0.000211 *D AND2XL
*P *8 O *C 0 11 *L 0
*I *38:A0N I *C 5 14 *L 0.000211 *D AOI2BB1X1
*I *36:SI I *C 7 9 *L 0.000388 *D SDFFRHQX1
*I *33:Q O *C 3 13 *L 0 *D SDFFRHQX1

*CAP
1 *8:2 0.000219474
2 *8:4 0.000219474
3 *8:7 0.000153399
4 *8:8 0.000127193
5 *8:9 0.000242881
6 *8:10 2.49273e-05
7 *8:11 0.000109737
8 *8:12 0.000292416
9 *8:13 1.27832e-05
10 *8:14 0.000109737
11 *8 8.78846e-05
12 *8:16 1.99522e-05
13 *8:17 0.000129689
14 *8:19 1.99522e-05
15 *8:20 0.000129689
16 *8:21 0.000102266
17 *33:Q 0.000102266

*RES
1 *8:21 *33:Q 5.30261
2 *8:20 *36:SI 8
3 *8:19 *8:21 8
4 *8:17 *8:20 8.07198
5 *8:16 *8:19 1.24184
6 *8:14 *38:A0N 8
7 *8:13 *8:17 8
8 *8:12 *8:16 8
9 *8:12 *8 4.55693
10 *8:11 *8:14 6.83013
11 *8:10 *8:13 0.662826
12 *8:9 *8:12 10.6052
13 *8:9 *8:11 8
14 *8:8 *8:10 0.629685
15 *8:7 *8:9 1.98848
16 *8:7 *8:8 5.96544
17 *8:4 *8:7 8
18 *8:3 *40:A 8
19 *8:3 *8:5 1.07147
20 *8:2 *8:4 13.6603
21 *8:1 *8:3 8
22 *8:1 *8:2 8
23 *8:0 *8:1 1.07147
*END

*D_NET *9 0.00302528

*CONN
*I *43:A I *C 5 5 *L 0.000211 *D AND2XL
*I *41:A0N I *C 5 7 *L 0.000211 *D AOI2BB1XL
*I *36:Q O *C 3 9 *L 0 *D SDFFRHQX1
*P *9 O *C 8 0 *L 0
*I *42:SI I *C 18 5 *L 0.000388 *D SDFFRHQX1

*CAP
1 *9:2 0.000209498
2 *9:4 8.97849e-05
3 *9:5 0.000119713
4 *9:8 0.000127832
5 *9:9 0.000204531
6 *9:11 9.9761e-06
7 *9:12 0.000127832
8 *9:13 0.000204531
9 *9:14 9.9761e-06
10 *9:15 6.98327e-05
11 *9:16 1.99522e-05
12 *9:18 6.98327e-05
13 *9:19 0.000158042
14 *9:21 0.000268448
15 *9 0.00013809
16 *9:23 0.000280592
17 *9:24 0.000152759
18 *9:25 0.000152759
19 *9:26 0.000194229
20 *9:27 0.000182085
21 *9:28 0.00011749
22 *9:29 0.00011749

*RES
1 *9:29 *42:SI 8
2 *9:28 *9:29 8.01797
3 *9:27 *9:28 8
4 *9:26 *9:27 9.91066
5 *9:25 *9:26 0.629685
6 *9:24 *9:25 7.29109
7 *9:23 *9:24 0.629685
8 *9:21 *9:23 13.9194
9 *9:19 *9 8.59486
10 *9:19 *9:21 8
11 *9:18 *36:Q 8
12 *9:16 *9:19 1.24184
13 *9:15 *9:18 4.34645
14 *9:14 *41:A0N 8
15 *9:13 *9:16 8
16 *9:12 *9:15 8
17 *9:11 *9:14 0.620921
18 *9:9 *9:13 10.6052
19 *9:8 *9:12 6.62826
20 *9:8 *9:11 8
21 *43:A *9:10 1.76924
22 *9:5 *9:9 8
23 *9:4 *9:8 8
24 *9:3 *43:A 8
25 *9:3 *9:6 1.07147
26 *9:2 *9:5 7.45105
27 *9:2 *9:4 5.58829
28 *9:1 *9:3 8
29 *9:1 *9:2 8
30 *9:0 *9:1 1.07147
*END

*D_NET *10 0.00176375

*CONN
*P *10 O *C 8 0 *L 0
*I *37:Q O *C 7 3 *L 0 *D SDFFRHQX1
*I *44:A0N I *C 9 5 *L 0.000211 *D AOI2BB1X1
*I *47:A I *C 9 7 *L 0.000211 *D AND2XL
*I *30:SI I *C 11 10 *L 0.000388 *D SDFFRHQX1

*CAP
1 *10:0 0.000148066
2 *10:1 0.000127832
3 *10 0.000148066
4 *10:3 6.39161e-05
5 *10:4 6.39161e-05
6 *10:5 1.99522e-05
7 *10:6 3.99044e-05
8 *10:7 3.04534e-05
9 *10:8 3.99044e-05
10 *10:9 8.03338e-05
11 *10:11 8.03338e-05
12 *10:12 4.04295e-05
13 *10:13 7.98088e-05
14 *10:14 4.98805e-05
15 *10:16 2.55664e-05
16 *10:17 0.000115049
17 *10:18 8.94825e-05
18 *10:19 2.99283e-05
19 *10:20 1.99522e-05
20 *10:21 2.99283e-05
21 *10:22 3.04534e-05
22 *10:24 0.000180095
23 *10:25 0.000180095
24 *10:26 3.04534e-05
25 *10:27 1.99522e-05

*RES
1 *10:27 *30:SI 8
2 *10:26 *10:27 1.24184
3 *10:25 *10:26 0.653601
4 *10:24 *10:25 10.5557
5 *10:22 *10:24 0.653601
6 *10:21 *47:A 8
7 *10:20 *10:22 1.24184
8 *10:19 *10:21 1.86276
9 *10:18 *10:20 8
10 *10:17 *10:19 8
11 *10:17 *10:18 4.63978
12 *10:16 *10:17 1.32565
13 *10:14 *10:16 8
14 *10:13 *44:A0N 8
15 *10:13 *10:14 3.10461
16 *10:12 *10:13 1.86276
17 *10:11 *10:12 0.653601
18 *10:9 *10:11 4.34645
19 *10:8 *37:Q 8
20 *10:7 *10:9 0.653601
21 *10:6 *10:8 2.48369
22 *10:5 *10:7 1.24184
23 *10:4 *10:6 8
24 *10:3 *10:5 8
25 *10:1 *10:4 3.31413
26 *10:1 *10:3 3.31413
27 *10:0 *10 9.21578
28 *10:0 *10:1 8
*END

*D_NET *11 0.002006

*CONN
*P *11 O *C 14 0 *L 0
*I *46:A0N I *C 15 4 *L 0.000211 *D AOI2BB1X1
*I *42:Q O *C 14 6 *L 0 *D SDFFRHQX1
*I *48:AN I *C 12 7 *L 0.00021 *D NOR2BX1
*I *45:SI I *C 18 9 *L 0.000388 *D SDFFRHQX1

*CAP
1 *11:0 0.000115049
2 *11:1 0.000115049
3 *11:2 0.000257803
4 *11:3 9.9761e-06
5 *11:4 0.000199522
6 *11:5 0.000210548
7 *11:6 9.9761e-06
8 *11:7 5.11329e-05
9 *11:8 9.9761e-05
10 *11 5.25058e-05
11 *42:Q 5.11329e-05
12 *11:12 0.000325922
13 *11:13 0.000300355
14 *48:AN 2.55664e-05
15 *11:15 9.51337e-06
16 *11:16 9.08527e-05
17 *11:17 8.13393e-05

*RES
1 *11:17 *45:SI 8
2 *11:16 *11:17 5.5509
3 *11:15 *11:16 0.649228
4 *11:13 *11:15 8
5 *11:12 *48:AN 1.32565
6 *11:12 *11:13 15.8867
7 *11:8 *11:12 8
8 *11:7 *42:Q 2.65131
9 *11:6 *46:A0N 8
10 *11:5 *11 3.26801
11 *11:4 *11:8 6.20921
12 *11:4 *11:7 8
13 *11:3 *11:6 0.620921
14 *11:2 *11:5 9.8367
15 *11:2 *11:4 6.20921
16 *11:1 *11:3 8
17 *11:0 *11:2 8
18 *11:0 *11:1 5.96544
*END

*D_NET *12 0.00231119

*CONN
*I *46:A1N I *C 15 4 *L 0.00021 *D AOI2BB1X1
*P *12 O *C 14 0 *L 0
*I *29:SI I *C 18 10 *L 0.000388 *D SDFFRHQX1
*I *45:Q O *C 14 9 *L 0 *D SDFFRHQX1
*I *49:A I *C 12 8 *L 0.000395 *D INVX1

*CAP
1 *12:1 0.000259379
2 *12:2 9.03099e-05
3 *12:3 0.00017957
4 *12:4 0.000100286
5 *12:5 8.94825e-05
6 *12:6 0.000100286
7 *12:7 8.94825e-05
8 *12:8 6.03817e-05
9 *12:9 8.40092e-06
10 *12:10 4.98805e-05
11 *12 8.40092e-06
12 *12:12 0.000140615
13 *12:13 0.000115049
14 *12:14 3.77105e-05
15 *12:15 5.98566e-05
16 *12:16 0.000127193
17 *12:17 9.98857e-05
18 *12:18 0.000127193
19 *12:19 9.42553e-05
20 *12:20 3.77105e-05
21 *12:21 5.42262e-05
22 *12:22 2.55664e-05
23 *12:24 2.99283e-05
24 *12:25 4.98805e-05
25 *12:26 7.66993e-05
26 *12:27 5.14557e-05
27 *45:Q 7.66993e-05
28 *12:29 5.14557e-05
29 *12:30 1.99522e-05

*RES
1 *12:30 *49:A 8
2 *12:29 *12:30 1.24184
3 *12:27 *12:29 1.9608
4 *12:26 *45:Q 3.97696
5 *12:25 *12:27 1.24184
6 *12:25 *12:26 8
7 *12:24 *12:25 1.86276
8 *12:22 *12:24 8
9 *12:21 *29:SI 8
10 *12:20 *12:22 1.32565
11 *12:19 *12:21 3.7006
12 *12:18 *12:20 0.629685
13 *12:17 *12:19 2.60566
14 *12:16 *12:18 5.96544
15 *12:15 *12:17 3.72553
16 *12:14 *12:16 0.629685
17 *12:13 *12:15 8
18 *12:12 *12:14 1.32565
19 *12:12 *12:13 5.96544
20 *12:10 *12:12 8
21 *12:9 *12 0.522881
22 *12:8 *12:10 3.10461
23 *12:7 *12:9 8
24 *12:6 *12:8 0.653601
25 *12:5 *12:7 4.63978
26 *12:4 *12:6 5.58829
27 *12:3 *12:5 8
28 *12:2 *12:4 0.653601
29 *12:1 *12:3 11.1766
30 *12:1 *12:2 4.96737
31 *46:A1N *12:1 8
*END

*D_NET *13 0.000869168

*CONN
*I *48:B I *C 12 7 *L 0.000392 *D NOR2BX1
*I *49:Y O *C 12 9 *L 0 *D INVX1
*I *45:D I *C 17 8 *L 0.000388 *D SDFFRHQX1

*CAP
1 *13:0 5.98566e-05
2 *13:1 5.98566e-05
3 *13:3 0.000153399
4 *13:5 0.000165543
5 *13:6 0.000165543
6 *13:7 0.000165543
7 *13:8 3.77105e-05
8 *13:9 2.55664e-05
9 *13:10 1.80754e-05
10 *13:11 1.80754e-05

*RES
1 *13:11 *45:D 8
2 *13:10 *13:11 1.23353
3 *13:9 *13:10 8
4 *13:8 *13:9 1.32565
5 *13:7 *13:8 0.629685
6 *13:6 *13:7 7.95392
7 *13:5 *13:6 0.629685
8 *13:3 *13:5 7.95392
9 *13:1 *49:Y 8
10 *13:1 *13:3 8
11 *13:0 *48:B 8
12 *13:0 *13:1 3.72553
*END

*D_NET *14 0.00129402

*CONN
*I *46:B0 I *C 14 4 *L 0.000392 *D AOI2BB1X1
*I *48:Y O *C 12 7 *L 0 *D NOR2BX1
*I *44:A1N I *C 9 5 *L 0.00021 *D AOI2BB1X1
*I *47:B I *C 9 7 *L 0.00021 *D AND2XL

*CAP
1 *14:2 2.55664e-05
2 *14:4 3.77105e-05
3 *14:5 0.000101627
4 *14:6 0.000101627
5 *14:7 6.32769e-05
6 *14:8 5.11329e-05
7 *14:9 0.000129689
8 *14:10 0.000169594
9 *14:11 3.99044e-05
10 *14:12 0.000166182
11 *14:14 0.000166182
12 *14:15 6.03817e-05
13 *14:16 4.98805e-05
14 *14:17 3.04534e-05
15 *14:19 3.04534e-05
16 *14:20 4.04295e-05
17 *14:21 2.99283e-05

*RES
1 *14:21 *47:B 8
2 *14:20 *14:21 1.86276
3 *14:19 *14:20 0.653601
4 *14:17 *14:19 1.24184
5 *14:16 *44:A1N 8
6 *14:15 *14:17 0.653601
7 *14:15 *14:16 3.10461
8 *14:14 *14:15 8
9 *14:12 *14:14 8.61674
10 *14:11 *48:Y 8
11 *14:10 *14:12 8
12 *14:10 *14:11 2.48369
13 *14:9 *14:10 8.07198
14 *14:8 *14:9 8
15 *14:7 *14:8 2.65131
16 *14:6 *14:7 0.629685
17 *14:5 *14:6 4.63978
18 *14:4 *14:5 0.629685
19 *14:2 *14:4 1.32565
20 *14:1 *46:B0 8
21 *14:1 *14:2 8
22 *14:0 *14:1 1.07147
*END

*D_NET *15 0.000517532

*CONN
*I *46:Y O *C 14 4 *L 0 *D AOI2BB1X1
*I *42:D I *C 17 5 *L 0.000388 *D SDFFRHQX1

*CAP
1 *15:1 3.99044e-05
2 *15:2 3.99044e-05
3 *15:3 0.000191748
4 *15:4 0.000191748
5 *15:5 2.71131e-05
6 *15:6 2.71131e-05

*RES
1 *15:6 *42:D 8
2 *15:5 *15:6 1.8503
3 *15:4 *15:5 8
4 *15:3 *15:4 9.9424
5 *15:2 *15:3 8
6 *15:1 *15:2 2.48369
7 *46:Y *15:1 8
*END

*D_NET *16 0.00039533

*CONN
*I *44:Y O *C 8 5 *L 0 *D AOI2BB1X1
*I *37:D I *C 10 4 *L 0.000388 *D SDFFRHQX1

*CAP
1 *16:1 4.98805e-05
2 *16:2 4.98805e-05
3 *16:3 0.000127832
4 *16:4 0.000127832
5 *16:5 1.99522e-05
6 *16:6 1.99522e-05

*RES
1 *16:6 *37:D 8
2 *16:5 *16:6 1.24184
3 *16:4 *16:5 8
4 *16:3 *16:4 6.62826
5 *16:2 *16:3 8
6 *16:1 *16:2 3.10461
7 *44:Y *16:1 8
*END

*D_NET *17 0.000947168

*CONN
*I *47:Y O *C 9 7 *L 0 *D AND2XL
*I *44:B0 I *C 9 5 *L 0.000392 *D AOI2BB1X1
*I *41:A1N I *C 6 7 *L 0.00021 *D AOI2BB1XL
*I *43:B I *C 5 5 *L 0.00021 *D AND2XL

*CAP
1 *17:3 5.11329e-05
2 *17:4 5.11329e-05
3 *17:5 4.98805e-05
4 *17:6 7.98088e-05
5 *17:7 2.99283e-05
6 *17:8 0.000191748
7 *17:10 0.000242881
8 *17:11 5.98566e-05
9 *17:12 5.11329e-05
10 *17:13 5.98566e-05
11 *17:14 3.99044e-05
12 *17:16 3.99044e-05

*RES
1 *17:16 *43:B 8
2 *17:14 *17:16 2.48369
3 *17:13 *41:A1N 8
4 *17:12 *17:14 8
5 *17:11 *17:13 3.72553
6 *17:10 *17:12 2.65131
7 *17:10 *17:11 8
8 *17:8 *17:10 9.9424
9 *17:7 *44:B0 8
10 *17:6 *17:8 8
11 *17:6 *17:7 1.86276
12 *17:5 *17:6 3.10461
13 *17:4 *17:5 8
14 *17:3 *17:4 2.65131
15 *17:1 *17:3 8
16 *17:1 *47:Y 8
17 *17:0 *17:1 0.380967
*END

*D_NET *18 0.00039533

*CONN
*I *41:Y O *C 5 7 *L 0 *D AOI2BB1XL
*I *36:D I *C 7 8 *L 0.000388 *D SDFFRHQX1

*CAP
1 *18:1 4.98805e-05
2 *18:2 4.98805e-05
3 *18:3 0.000127832
4 *18:4 0.000127832
5 *18:5 1.99522e-05
6 *18:6 1.99522e-05

*RES
1 *18:6 *36:D 8
2 *18:5 *18:6 1.24184
3 *18:4 *18:5 8
4 *18:3 *18:4 6.62826
5 *18:2 *18:3 8
6 *18:1 *18:2 3.10461
7 *41:Y *18:1 8
*END

*D_NET *19 0.00118348

*CONN
*I *41:B0 I *C 5 7 *L 0.000212 *D AOI2BB1XL
*I *43:Y O *C 5 6 *L 0 *D AND2XL
*I *38:A1N I *C 5 14 *L 0.00021 *D AOI2BB1X1
*I *40:B I *C 5 15 *L 0.00021 *D AND2XL

*CAP
1 *19:1 5.98566e-05
2 *19:2 6.03817e-05
3 *19:3 2.04773e-05
4 *19:4 0.000210023
5 *19:5 4.04295e-05
6 *19:6 0.000210023
7 *19:7 4.04295e-05
8 *19:8 0.000100286
9 *19:9 3.04534e-05
10 *19:10 0.000100286
11 *19:11 1.99522e-05
12 *19:12 6.03817e-05
13 *19:14 8.97849e-05
14 *19:15 5.04055e-05
15 *19:17 5.04055e-05
16 *19:18 3.99044e-05

*RES
1 *19:18 *40:B 8
2 *19:17 *19:18 2.48369
3 *19:15 *19:17 0.653601
4 *19:14 *38:A1N 8
5 *19:14 *19:15 2.48369
6 *19:12 *19:14 3.10461
7 *19:11 *43:Y 8
8 *19:10 *19:12 0.653601
9 *19:9 *19:11 1.24184
10 *19:8 *19:10 5.58829
11 *19:7 *19:9 0.653601
12 *19:6 *19:8 0.653601
13 *19:5 *19:7 1.86276
14 *19:4 *19:6 12.4184
15 *19:3 *19:5 0.653601
16 *19:2 *19:4 0.653601
17 *19:1 *19:3 0.620921
18 *19:1 *19:2 3.10461
19 *41:B0 *19:1 8
*END

*D_NET *20 0.00109868

*CONN
*I *38:B0 I *C 5 14 *L 0.000392 *D AOI2BB1X1
*I *40:Y O *C 6 16 *L 0 *D AND2XL
*I *35:A1N I *C 9 14 *L 0.00021 *D AOI2BB1X1
*I *39:B I *C 8 15 *L 0.00021 *D AND2XL

*CAP
1 *20:0 6.39161e-05
2 *20:1 0.000281231
3 *20:2 1.99522e-05
4 *20:3 0.000217315
5 *20:4 5.98566e-05
6 *20:5 1.99522e-05
7 *20:6 9.9761e-06
8 *20:7 5.98566e-05
9 *20:9 9.9761e-06
10 *40:Y 2.55664e-05
11 *20:12 3.77105e-05
12 *20:13 0.000152759
13 *39:B 0.000140615

*RES
1 *20:13 *39:B 7.29109
2 *20:12 *20:13 0.629685
3 *40:Y *20:12 1.32565
4 *20:9 *35:A1N 8
5 *20:7 *40:Y 8
6 *20:6 *20:9 0.620921
7 *20:5 *38:B0 8
8 *20:4 *20:7 3.72553
9 *20:3 *20:6 8
10 *20:2 *20:5 1.24184
11 *20:1 *20:4 8
12 *20:1 *20:3 11.268
13 *20:0 *20:2 8
14 *20:0 *20:1 3.31413
*END

*D_NET *21 0.00042651

*CONN
*I *38:Y O *C 4 14 *L 0 *D AOI2BB1X1
*I *33:D I *C 7 12 *L 0.000388 *D SDFFRHQX1

*CAP
1 *21:1 3.99044e-05
2 *21:2 3.99044e-05
3 *21:3 0.000153399
4 *21:4 0.000153399
5 *21:5 1.99522e-05
6 *21:6 1.99522e-05

*RES
1 *21:6 *33:D 8
2 *21:5 *21:6 1.24184
3 *21:4 *21:5 8
4 *21:3 *21:4 7.95392
5 *21:2 *21:3 8
6 *21:1 *21:2 2.48369
7 *38:Y *21:1 8
*END

*D_NET *22 0.000577957

*CONN
*I *35:Y O *C 8 14 *L 0 *D AOI2BB1X1
*I *30:D I *C 10 11 *L 0.000388 *D SDFFRHQX1

*CAP
1 *22:1 7.98088e-05
2 *22:2 7.98088e-05
3 *22:3 2.55664e-05
4 *22:4 3.77105e-05
5 *22:5 7.60601e-05
6 *22:6 7.60601e-05
7 *22:7 3.77105e-05
8 *22:8 2.55664e-05
9 *22:9 6.98327e-05
10 *22:10 6.98327e-05

*RES
1 *22:10 *30:D 8
2 *22:9 *22:10 4.34645
3 *22:8 *22:9 8
4 *22:7 *22:8 1.32565
5 *22:6 *22:7 0.629685
6 *22:5 *22:6 3.31413
7 *22:4 *22:5 0.629685
8 *22:3 *22:4 1.32565
9 *22:2 *22:3 8
10 *22:1 *22:2 4.96737
11 *35:Y *22:1 8
*END

*D_NET *23 0.00140129

*CONN
*I *39:Y O *C 9 16 *L 0 *D AND2XL
*I *34:B I *C 12 15 *L 0.000392 *D NAND2X1
*I *35:B0 I *C 8 14 *L 0.000392 *D AOI2BB1X1
*I *32:A1 I *C 16 14 *L 0.000212 *D OA21X1

*CAP
1 *23:0 3.99044e-05
2 *39:Y 0.000166182
3 *23:2 6.09067e-05
4 *23:3 0.000204531
5 *23:4 6.09067e-05
6 *34:B 3.83497e-05
7 *23:6 9.9761e-06
8 *23:7 3.99044e-05
9 *23:8 9.9761e-06
10 *23:10 2.55664e-05
11 *23:11 3.77105e-05
12 *23:12 0.000152759
13 *23:13 0.000152759
14 *23:14 8.88434e-05
15 *23:15 7.66993e-05
16 *23:16 7.98088e-05
17 *23:17 7.98088e-05
18 *23:18 3.83497e-05
19 *32:A1 3.83497e-05

*RES
1 *23:18 *32:A1 1.98848
2 *23:17 *23:18 8
3 *23:16 *23:17 4.96737
4 *23:15 *23:16 8
5 *23:14 *23:15 3.97696
6 *23:13 *23:14 0.629685
7 *23:12 *23:13 7.29109
8 *23:11 *23:12 0.629685
9 *23:10 *23:11 1.32565
10 *23:8 *23:10 8
11 *23:7 *35:B0 8
12 *23:6 *23:8 0.620921
13 *23:4 *23:7 2.48369
14 *23:3 *23:6 8
15 *23:3 *34:B 1.98848
16 *23:2 *23:4 1.3072
17 *39:Y *23:3 8.61674
18 *23:0 *23:2 2.48369
19 *23:0 *39:Y 8
*END

*D_NET *24 0.000660768

*CONN
*I *32:B0 I *C 16 14 *L 0.00021 *D OA21X1
*I *31:B I *C 13 14 *L 0.000419 *D XNOR2X1
*I *34:Y O *C 12 16 *L 0 *D NAND2X1

*CAP
1 *24:2 0.000230098
2 *24:4 0.000230098
3 *24:5 6.98327e-05
4 *24:6 7.03577e-05
5 *24:7 9.9761e-06
6 *24:8 3.04534e-05
7 *24:10 1.99522e-05

*RES
1 *24:10 *34:Y 8
2 *24:8 *24:10 1.24184
3 *24:7 *31:B 8
4 *24:6 *24:8 0.653601
5 *24:5 *24:7 0.620921
6 *24:5 *24:6 3.72553
7 *24:4 *24:5 8
8 *24:2 *24:4 11.9309
9 *24:1 *32:B0 8
10 *24:1 *24:2 8
11 *24:0 *24:1 1.07147
*END

*D_NET *25 0.000421096

*CONN
*I *32:Y O *C 17 14 *L 0 *D OA21X1
*I *29:D I *C 17 11 *L 0.000388 *D SDFFRHQX1

*CAP
1 *25:1 2.99283e-05
2 *25:2 5.09306e-05
3 *25:3 0.00018062
4 *25:4 0.000159618

*RES
1 *25:4 *29:D 8
2 *25:3 *25:4 9.93474
3 *25:2 *25:3 1.3072
4 *25:1 *25:2 1.86276
5 *32:Y *25:1 8
*END

*D_NET *26 0.000497595

*CONN
*I *31:Y O *C 12 14 *L 0 *D XNOR2X1
*I *28:D I *C 14 12 *L 0.000388 *D SDFFRHQX1

*CAP
1 *31:Y 1.27832e-05
2 *26:1 1.27832e-05
3 *26:2 4.98805e-05
4 *26:3 4.98805e-05
5 *26:4 0.000166182
6 *26:5 0.000166182
7 *26:6 1.99522e-05
8 *26:7 1.99522e-05

*RES
1 *26:7 *28:D 8
2 *26:6 *26:7 1.24184
3 *26:5 *26:6 8
4 *26:4 *26:5 8.61674
5 *26:3 *26:4 8
6 *26:2 *26:3 3.10461
7 *26:1 *26:2 8
8 *31:Y *26:1 0.662826
*END

