*SPEF "IEEE 1481-1998"
*DESIGN "cordic"
*DATE "Tue Jan 30 20:21:54 2024"
*VENDOR "Cadence Design Systems, Inc."
*PROGRAM "Innovus"
*VERSION "16.26-s040_1"
*DESIGN_FLOW "PIN_CAP NONE" "NAME_SCOPE LOCAL"
*DIVIDER /
*DELIMITER :
*BUS_DELIMITER []
*T_UNIT 1 NS
*C_UNIT 1 PF
*R_UNIT 1 OHM
*L_UNIT 1 HENRY

// MMMC spef file for corner 'rccorners'

*NAME_MAP

*1 FE_OFN104_z_10__5
*2 FE_OFN103_x_5__8
*3 FE_OFN102_y_7__16
*4 FE_OFN101_z_9__6
*5 FE_OFN100_z_1__15
*6 FE_OFN99_z_12__4
*7 CTS_252
*8 CTS_251
*9 CTS_250
*10 CTS_249
*11 CTS_248
*12 CTS_247
*13 CTS_246
*14 CTS_245
*15 CTS_244
*16 CTS_243
*17 CTS_242
*18 CTS_241
*19 CTS_240
*20 CTS_239
*21 CTS_238
*22 CTS_237
*23 CTS_236
*24 CTS_235
*25 CTS_234
*26 CTS_233
*27 CTS_232
*28 CTS_231
*29 CTS_230
*30 CTS_229
*31 CTS_228
*32 CTS_227
*33 CTS_226
*34 CTS_225
*35 CTS_224
*36 CTS_223
*37 CTS_222
*38 CTS_221
*39 CTS_220
*40 CTS_219
*41 CTS_218
*42 CTS_217
*43 CTS_216
*44 CTS_215
*45 CTS_214
*46 CTS_213
*47 CTS_212
*48 CTS_211
*49 CTS_210
*50 CTS_209
*51 CTS_208
*52 CTS_207
*53 CTS_206
*54 CTS_205
*55 CTS_204
*56 CTS_203
*57 CTS_202
*58 CTS_201
*59 CTS_200
*60 CTS_199
*61 CTS_198
*62 CTS_197
*63 CTS_196
*64 CTS_195
*65 CTS_194
*66 CTS_193
*67 CTS_192
*68 CTS_191
*69 CTS_190
*70 FE_OFN98_FE_OFN4_rst
*71 FE_OFN94_n_933
*72 FE_OFN91_n_726
*73 FE_OFN89_n_1052
*74 FE_OFN88_n_1002
*75 FE_OFN84_n_748
*76 genblk1\[1\]\.U/FE_OFN83_n_97
*77 FE_OFN81_n_784
*78 FE_OFN80_n
*79 FE_OFN77_n_566
*80 FE_OFN76_n
*81 genblk1\[1\]\.U/FE_OFN75_n_0
*82 FE_OFN73_n_575
*83 FE_OFN72_n
*84 FE_OFN71_n
*85 FE_OFN69_n_1381
*86 FE_OFN68_n_1276
*87 FE_OFN66_n_1226
*88 FE_OFN65_n_1159
*89 FE_OFN64_n_1066
*90 FE_OFN63_n_843
*91 FE_OFN61_n_715
*92 FE_OFN54_n_10
*93 FE_OFN52_x_6__8
*94 FE_OFN51_z_14__16
*95 FE_OFN50_z_13__2
*96 FE_OFN49_z_13__16
*97 FE_OFN48_y_13__0
*98 FE_OFN47_z_12__3
*99 FE_OFN46_z_12__16
*100 FE_OFN45_z_11__16
*101 FE_OFN44_z_10__16
*102 FE_OFN43_z_9__16
*103 FE_OFN42_z_8__16
*104 FE_OFN41_z_7__16
*105 FE_OFN40_z_6__16
*106 FE_OFN39_z_5__16
*107 FE_OFN38_z_4__16
*108 FE_OFN37_z_3__16
*109 FE_OFN36_y_3__9
*110 FE_OFN35_z_2__16
*111 genblk1\[1\]\.U/FE_OFN34_z_1__16
*112 FE_OFN33_dft_sdo_2
*113 FE_OFN32_FE_OFN21_SE
*114 FE_OFN31_SE
*115 FE_OFN30_SE
*116 FE_OFN29_SE
*117 FE_OFN28_SE
*118 FE_OFN27_SE
*119 FE_OFN26_SE
*120 FE_OFN25_SE
*121 FE_OFN24_SE
*122 FE_OFN23_SE
*123 FE_OFN22_SE
*124 FE_OFN21_SE
*125 FE_OFN20_SE
*126 FE_OFN19_SE
*127 FE_OFN18_SE
*128 FE_OFN17_SE
*129 FE_OFN16_SE
*130 FE_OFN15_rst
*131 FE_OFN14_rst
*132 FE_OFN13_rst
*133 FE_OFN12_rst
*134 FE_OFN11_rst
*135 FE_OFN10_rst
*136 FE_OFN9_rst
*137 FE_OFN8_rst
*138 FE_OFN7_rst
*139 FE_OFN6_rst
*140 FE_OFN5_rst
*141 FE_OFN4_rst
*142 FE_OFN3_rst
*143 FE_OFN2_rst
*144 FE_OFN1_rst
*145 FE_OFN0_rst
*146 clk
*147 rst
*148 SE
*149 scan_in
*150 dft_sdi_1
*151 dft_sdi_2
*152 dft_sdi_3
*153 dft_sdi_4
*154 dft_sdi_5
*155 dft_sdi_6
*156 dft_sdi_7
*157 x_i[16]
*158 x_i[15]
*159 x_i[14]
*160 x_i[13]
*161 x_i[12]
*162 x_i[11]
*163 x_i[10]
*164 x_i[9]
*165 x_i[8]
*166 x_i[7]
*167 x_i[6]
*168 x_i[5]
*169 x_i[4]
*170 x_i[3]
*171 x_i[2]
*172 x_i[1]
*173 x_i[0]
*174 y_i[16]
*175 y_i[15]
*176 y_i[14]
*177 y_i[13]
*178 y_i[12]
*179 y_i[11]
*180 y_i[10]
*181 y_i[9]
*182 y_i[8]
*183 y_i[7]
*184 y_i[6]
*185 y_i[5]
*186 y_i[4]
*187 y_i[3]
*188 y_i[2]
*189 y_i[1]
*190 y_i[0]
*191 theta_i[16]
*192 theta_i[15]
*193 theta_i[14]
*194 theta_i[13]
*195 theta_i[12]
*196 theta_i[11]
*197 theta_i[10]
*198 theta_i[9]
*199 theta_i[8]
*200 theta_i[7]
*201 theta_i[6]
*202 theta_i[5]
*203 theta_i[4]
*204 theta_i[3]
*205 theta_i[2]
*206 theta_i[1]
*207 theta_i[0]
*208 x_o[16]
*209 x_o[15]
*210 x_o[14]
*211 x_o[13]
*212 x_o[12]
*213 x_o[11]
*214 x_o[10]
*215 x_o[9]
*216 x_o[8]
*217 x_o[7]
*218 x_o[6]
*219 x_o[5]
*220 x_o[4]
*221 x_o[3]
*222 x_o[2]
*223 x_o[1]
*224 x_o[0]
*225 y_o[16]
*226 y_o[15]
*227 y_o[14]
*228 y_o[13]
*229 y_o[12]
*230 y_o[11]
*231 y_o[10]
*232 y_o[9]
*233 y_o[8]
*234 y_o[7]
*235 y_o[6]
*236 y_o[5]
*237 y_o[4]
*238 y_o[3]
*239 y_o[2]
*240 y_o[1]
*241 y_o[0]
*242 theta_o[15]
*243 theta_o[14]
*244 theta_o[13]
*245 theta_o[12]
*246 theta_o[11]
*247 theta_o[10]
*248 theta_o[9]
*249 theta_o[8]
*250 theta_o[7]
*251 theta_o[6]
*252 theta_o[5]
*253 theta_o[4]
*254 theta_o[3]
*255 theta_o[2]
*256 theta_o[1]
*257 theta_o[0]
*258 scan_out
*259 dft_sdo_1
*260 dft_sdo_2
*261 dft_sdo_3
*262 dft_sdo_4
*263 dft_sdo_5
*264 dft_sdo_6
*265 dft_sdo_7
*266 x\[1\][16]
*267 x\[1\][15]
*268 x\[1\][14]
*269 x\[1\][13]
*270 x\[1\][12]
*271 x\[1\][11]
*272 x\[1\][10]
*273 x\[1\][9]
*274 x\[1\][8]
*275 x\[1\][7]
*276 x\[1\][6]
*277 x\[1\][5]
*278 x\[1\][4]
*279 x\[1\][3]
*280 x\[1\][2]
*281 x\[1\][1]
*282 x\[1\][0]
*283 y\[1\][16]
*284 y\[1\][15]
*285 y\[1\][14]
*286 y\[1\][13]
*287 y\[1\][12]
*288 y\[1\][11]
*289 y\[1\][10]
*290 y\[1\][9]
*291 y\[1\][8]
*292 y\[1\][7]
*293 y\[1\][6]
*294 y\[1\][5]
*295 y\[1\][4]
*296 y\[1\][3]
*297 y\[1\][2]
*298 y\[1\][1]
*299 y\[1\][0]
*300 z\[1\][16]
*301 z\[1\][15]
*302 z\[1\][14]
*303 z\[1\][13]
*304 z\[1\][12]
*305 z\[1\][11]
*306 z\[1\][10]
*307 z\[1\][9]
*308 z\[1\][8]
*309 z\[1\][7]
*310 z\[1\][6]
*311 z\[1\][5]
*312 z\[1\][4]
*313 z\[1\][3]
*314 z\[1\][2]
*315 z\[1\][1]
*316 z\[1\][0]
*317 x\[2\][16]
*318 x\[2\][15]
*319 x\[2\][14]
*320 x\[2\][13]
*321 x\[2\][12]
*322 x\[2\][11]
*323 x\[2\][10]
*324 x\[2\][9]
*325 x\[2\][8]
*326 x\[2\][7]
*327 x\[2\][6]
*328 x\[2\][5]
*329 x\[2\][4]
*330 x\[2\][3]
*331 x\[2\][2]
*332 x\[2\][1]
*333 x\[2\][0]
*334 y\[2\][16]
*335 y\[2\][15]
*336 y\[2\][14]
*337 y\[2\][13]
*338 y\[2\][12]
*339 y\[2\][11]
*340 y\[2\][10]
*341 y\[2\][9]
*342 y\[2\][8]
*343 y\[2\][7]
*344 y\[2\][6]
*345 y\[2\][5]
*346 y\[2\][4]
*347 y\[2\][3]
*348 y\[2\][2]
*349 y\[2\][1]
*350 y\[2\][0]
*351 z\[2\][16]
*352 z\[2\][15]
*353 z\[2\][14]
*354 z\[2\][13]
*355 z\[2\][12]
*356 z\[2\][11]
*357 z\[2\][9]
*358 z\[2\][8]
*359 z\[2\][7]
*360 z\[2\][6]
*361 z\[2\][5]
*362 z\[2\][4]
*363 z\[2\][3]
*364 z\[2\][2]
*365 z\[2\][1]
*366 z\[2\][0]
*367 y\[3\][16]
*368 y\[3\][15]
*369 y\[3\][14]
*370 y\[3\][13]
*371 y\[3\][12]
*372 y\[3\][11]
*373 y\[3\][10]
*374 y\[3\][9]
*375 y\[3\][8]
*376 y\[3\][7]
*377 y\[3\][6]
*378 y\[3\][5]
*379 y\[3\][4]
*380 y\[3\][3]
*381 y\[3\][2]
*382 y\[3\][1]
*383 y\[3\][0]
*384 z\[3\][16]
*385 z\[3\][15]
*386 z\[3\][14]
*387 z\[3\][13]
*388 z\[3\][12]
*389 z\[3\][11]
*390 z\[3\][10]
*391 z\[3\][9]
*392 z\[3\][8]
*393 z\[3\][7]
*394 z\[3\][6]
*395 z\[3\][5]
*396 z\[3\][4]
*397 z\[3\][3]
*398 z\[3\][2]
*399 z\[3\][1]
*400 z\[3\][0]
*401 y\[4\][16]
*402 y\[4\][15]
*403 y\[4\][14]
*404 y\[4\][13]
*405 y\[4\][12]
*406 y\[4\][11]
*407 y\[4\][10]
*408 y\[4\][9]
*409 y\[4\][8]
*410 y\[4\][7]
*411 y\[4\][6]
*412 y\[4\][5]
*413 y\[4\][4]
*414 y\[4\][3]
*415 y\[4\][2]
*416 y\[4\][1]
*417 y\[4\][0]
*418 z\[4\][16]
*419 z\[4\][15]
*420 z\[4\][14]
*421 z\[4\][13]
*422 z\[4\][12]
*423 z\[4\][11]
*424 z\[4\][10]
*425 z\[4\][9]
*426 z\[4\][8]
*427 z\[4\][7]
*428 z\[4\][6]
*429 z\[4\][5]
*430 z\[4\][3]
*431 z\[4\][2]
*432 z\[4\][1]
*433 z\[4\][0]
*434 y\[5\][16]
*435 y\[5\][15]
*436 y\[5\][14]
*437 y\[5\][13]
*438 y\[5\][12]
*439 y\[5\][11]
*440 y\[5\][10]
*441 y\[5\][9]
*442 y\[5\][8]
*443 y\[5\][7]
*444 y\[5\][6]
*445 y\[5\][5]
*446 y\[5\][4]
*447 y\[5\][3]
*448 y\[5\][2]
*449 y\[5\][1]
*450 y\[5\][0]
*451 z\[5\][16]
*452 z\[5\][15]
*453 z\[5\][14]
*454 z\[5\][13]
*455 z\[5\][12]
*456 z\[5\][11]
*457 z\[5\][10]
*458 z\[5\][9]
*459 z\[5\][8]
*460 z\[5\][7]
*461 z\[5\][6]
*462 z\[5\][5]
*463 z\[5\][4]
*464 z\[5\][3]
*465 z\[5\][2]
*466 z\[5\][1]
*467 z\[5\][0]
*468 y\[6\][16]
*469 y\[6\][14]
*470 y\[6\][13]
*471 y\[6\][12]
*472 y\[6\][11]
*473 y\[6\][10]
*474 y\[6\][9]
*475 y\[6\][8]
*476 y\[6\][7]
*477 y\[6\][6]
*478 y\[6\][5]
*479 y\[6\][4]
*480 y\[6\][3]
*481 y\[6\][2]
*482 y\[6\][1]
*483 y\[6\][0]
*484 z\[6\][16]
*485 z\[6\][15]
*486 z\[6\][14]
*487 z\[6\][13]
*488 z\[6\][12]
*489 z\[6\][11]
*490 z\[6\][10]
*491 z\[6\][9]
*492 z\[6\][8]
*493 z\[6\][7]
*494 z\[6\][6]
*495 z\[6\][5]
*496 z\[6\][4]
*497 z\[6\][3]
*498 z\[6\][2]
*499 z\[6\][1]
*500 z\[6\][0]
*501 y\[7\][16]
*502 y\[7\][15]
*503 y\[7\][14]
*504 y\[7\][13]
*505 y\[7\][12]
*506 y\[7\][11]
*507 y\[7\][10]
*508 y\[7\][9]
*509 y\[7\][8]
*510 y\[7\][7]
*511 y\[7\][6]
*512 y\[7\][5]
*513 y\[7\][4]
*514 y\[7\][3]
*515 y\[7\][2]
*516 y\[7\][1]
*517 y\[7\][0]
*518 z\[7\][16]
*519 z\[7\][15]
*520 z\[7\][14]
*521 z\[7\][13]
*522 z\[7\][12]
*523 z\[7\][11]
*524 z\[7\][10]
*525 z\[7\][9]
*526 z\[7\][8]
*527 z\[7\][7]
*528 z\[7\][6]
*529 z\[7\][5]
*530 z\[7\][4]
*531 z\[7\][3]
*532 z\[7\][2]
*533 z\[7\][1]
*534 z\[7\][0]
*535 y\[8\][16]
*536 y\[8\][15]
*537 y\[8\][14]
*538 y\[8\][13]
*539 y\[8\][12]
*540 y\[8\][11]
*541 y\[8\][10]
*542 y\[8\][8]
*543 y\[8\][7]
*544 y\[8\][6]
*545 y\[8\][5]
*546 y\[8\][4]
*547 y\[8\][3]
*548 y\[8\][2]
*549 y\[8\][1]
*550 y\[8\][0]
*551 z\[8\][16]
*552 z\[8\][15]
*553 z\[8\][14]
*554 z\[8\][13]
*555 z\[8\][12]
*556 z\[8\][11]
*557 z\[8\][10]
*558 z\[8\][9]
*559 z\[8\][8]
*560 z\[8\][7]
*561 z\[8\][6]
*562 z\[8\][5]
*563 z\[8\][4]
*564 z\[8\][3]
*565 z\[8\][2]
*566 z\[8\][1]
*567 z\[8\][0]
*568 y\[9\][16]
*569 y\[9\][15]
*570 y\[9\][14]
*571 y\[9\][13]
*572 y\[9\][12]
*573 y\[9\][11]
*574 y\[9\][10]
*575 y\[9\][9]
*576 y\[9\][8]
*577 y\[9\][7]
*578 y\[9\][6]
*579 y\[9\][5]
*580 y\[9\][4]
*581 y\[9\][3]
*582 y\[9\][2]
*583 y\[9\][1]
*584 y\[9\][0]
*585 z\[9\][16]
*586 z\[9\][15]
*587 z\[9\][14]
*588 z\[9\][13]
*589 z\[9\][12]
*590 z\[9\][11]
*591 z\[9\][10]
*592 z\[9\][9]
*593 z\[9\][8]
*594 z\[9\][7]
*595 z\[9\][6]
*596 z\[9\][5]
*597 z\[9\][4]
*598 z\[9\][3]
*599 z\[9\][2]
*600 z\[9\][1]
*601 z\[9\][0]
*602 y\[10\][16]
*603 y\[10\][15]
*604 y\[10\][14]
*605 y\[10\][13]
*606 y\[10\][12]
*607 y\[10\][11]
*608 y\[10\][10]
*609 y\[10\][9]
*610 y\[10\][8]
*611 y\[10\][7]
*612 y\[10\][6]
*613 y\[10\][5]
*614 y\[10\][4]
*615 y\[10\][2]
*616 y\[10\][1]
*617 y\[10\][0]
*618 z\[10\][16]
*619 z\[10\][15]
*620 z\[10\][14]
*621 z\[10\][13]
*622 z\[10\][12]
*623 z\[10\][11]
*624 z\[10\][10]
*625 z\[10\][9]
*626 z\[10\][8]
*627 z\[10\][7]
*628 z\[10\][6]
*629 z\[10\][5]
*630 z\[10\][4]
*631 z\[10\][3]
*632 z\[10\][2]
*633 z\[10\][1]
*634 z\[10\][0]
*635 y\[11\][16]
*636 y\[11\][15]
*637 y\[11\][14]
*638 y\[11\][13]
*639 y\[11\][12]
*640 y\[11\][11]
*641 y\[11\][10]
*642 y\[11\][9]
*643 y\[11\][8]
*644 y\[11\][7]
*645 y\[11\][6]
*646 y\[11\][5]
*647 y\[11\][4]
*648 y\[11\][3]
*649 y\[11\][2]
*650 y\[11\][1]
*651 y\[11\][0]
*652 z\[11\][16]
*653 z\[11\][15]
*654 z\[11\][14]
*655 z\[11\][13]
*656 z\[11\][12]
*657 z\[11\][11]
*658 z\[11\][10]
*659 z\[11\][9]
*660 z\[11\][8]
*661 z\[11\][7]
*662 z\[11\][6]
*663 z\[11\][5]
*664 z\[11\][4]
*665 z\[11\][3]
*666 z\[11\][2]
*667 z\[11\][1]
*668 z\[11\][0]
*669 y\[12\][16]
*670 y\[12\][15]
*671 y\[12\][14]
*672 y\[12\][13]
*673 y\[12\][12]
*674 y\[12\][11]
*675 y\[12\][10]
*676 y\[12\][9]
*677 y\[12\][8]
*678 y\[12\][7]
*679 y\[12\][6]
*680 y\[12\][5]
*681 y\[12\][4]
*682 y\[12\][3]
*683 y\[12\][2]
*684 y\[12\][1]
*685 y\[12\][0]
*686 z\[12\][16]
*687 z\[12\][15]
*688 z\[12\][14]
*689 z\[12\][13]
*690 z\[12\][12]
*691 z\[12\][11]
*692 z\[12\][10]
*693 z\[12\][9]
*694 z\[12\][8]
*695 z\[12\][7]
*696 z\[12\][6]
*697 z\[12\][5]
*698 z\[12\][4]
*699 z\[12\][3]
*700 z\[12\][2]
*701 z\[12\][1]
*702 z\[12\][0]
*703 y\[13\][16]
*704 y\[13\][15]
*705 y\[13\][14]
*706 y\[13\][13]
*707 y\[13\][12]
*708 y\[13\][11]
*709 y\[13\][10]
*710 y\[13\][9]
*711 y\[13\][8]
*712 y\[13\][7]
*713 y\[13\][6]
*714 y\[13\][5]
*715 y\[13\][4]
*716 y\[13\][3]
*717 y\[13\][2]
*718 y\[13\][1]
*719 y\[13\][0]
*720 z\[13\][16]
*721 z\[13\][15]
*722 z\[13\][14]
*723 z\[13\][13]
*724 z\[13\][12]
*725 z\[13\][11]
*726 z\[13\][10]
*727 z\[13\][9]
*728 z\[13\][8]
*729 z\[13\][7]
*730 z\[13\][6]
*731 z\[13\][5]
*732 z\[13\][4]
*733 z\[13\][3]
*734 z\[13\][2]
*735 z\[13\][1]
*736 z\[13\][0]
*737 y\[14\][16]
*738 y\[14\][15]
*739 y\[14\][14]
*740 y\[14\][13]
*741 y\[14\][12]
*742 y\[14\][11]
*743 y\[14\][10]
*744 y\[14\][9]
*745 y\[14\][8]
*746 y\[14\][7]
*747 y\[14\][6]
*748 y\[14\][5]
*749 y\[14\][4]
*750 y\[14\][3]
*751 y\[14\][2]
*752 y\[14\][1]
*753 y\[14\][0]
*754 z\[14\][16]
*755 z\[14\][15]
*756 z\[14\][14]
*757 z\[14\][13]
*758 z\[14\][12]
*759 z\[14\][11]
*760 z\[14\][10]
*761 z\[14\][9]
*762 z\[14\][8]
*763 z\[14\][7]
*764 z\[14\][6]
*765 z\[14\][5]
*766 z\[14\][4]
*767 z\[14\][3]
*768 z\[14\][2]
*769 z\[14\][1]
*770 z\[14\][0]
*771 x\[3\][16]
*772 x\[3\][15]
*773 x\[3\][14]
*774 x\[3\][13]
*775 x\[3\][12]
*776 x\[3\][11]
*777 x\[3\][10]
*778 x\[3\][9]
*779 x\[3\][8]
*780 x\[3\][7]
*781 x\[3\][6]
*782 x\[3\][5]
*783 x\[3\][4]
*784 x\[3\][3]
*785 x\[3\][2]
*786 x\[3\][1]
*787 x\[3\][0]
*788 x\[4\][16]
*789 x\[4\][15]
*790 x\[4\][14]
*791 x\[4\][13]
*792 x\[4\][12]
*793 x\[4\][11]
*794 x\[4\][10]
*795 x\[4\][9]
*796 x\[4\][8]
*797 x\[4\][7]
*798 x\[4\][6]
*799 x\[4\][5]
*800 x\[4\][4]
*801 x\[4\][3]
*802 x\[4\][2]
*803 x\[4\][1]
*804 x\[4\][0]
*805 x\[5\][16]
*806 x\[5\][15]
*807 x\[5\][14]
*808 x\[5\][13]
*809 x\[5\][12]
*810 x\[5\][11]
*811 x\[5\][10]
*812 x\[5\][9]
*813 x\[5\][8]
*814 x\[5\][7]
*815 x\[5\][6]
*816 x\[5\][5]
*817 x\[5\][4]
*818 x\[5\][3]
*819 x\[5\][2]
*820 x\[5\][1]
*821 x\[5\][0]
*822 x\[6\][16]
*823 x\[6\][15]
*824 x\[6\][14]
*825 x\[6\][13]
*826 x\[6\][12]
*827 x\[6\][11]
*828 x\[6\][10]
*829 x\[6\][9]
*830 x\[6\][8]
*831 x\[6\][7]
*832 x\[6\][6]
*833 x\[6\][5]
*834 x\[6\][4]
*835 x\[6\][3]
*836 x\[6\][2]
*837 x\[6\][1]
*838 x\[6\][0]
*839 x\[7\][16]
*840 x\[7\][15]
*841 x\[7\][14]
*842 x\[7\][13]
*843 x\[7\][12]
*844 x\[7\][11]
*845 x\[7\][10]
*846 x\[7\][9]
*847 x\[7\][8]
*848 x\[7\][7]
*849 x\[7\][6]
*850 x\[7\][5]
*851 x\[7\][4]
*852 x\[7\][3]
*853 x\[7\][2]
*854 x\[7\][1]
*855 x\[7\][0]
*856 x\[8\][16]
*857 x\[8\][15]
*858 x\[8\][14]
*859 x\[8\][13]
*860 x\[8\][12]
*861 x\[8\][11]
*862 x\[8\][10]
*863 x\[8\][9]
*864 x\[8\][8]
*865 x\[8\][7]
*866 x\[8\][6]
*867 x\[8\][5]
*868 x\[8\][4]
*869 x\[8\][3]
*870 x\[8\][2]
*871 x\[8\][1]
*872 x\[8\][0]
*873 x\[9\][16]
*874 x\[9\][15]
*875 x\[9\][14]
*876 x\[9\][13]
*877 x\[9\][12]
*878 x\[9\][11]
*879 x\[9\][10]
*880 x\[9\][9]
*881 x\[9\][8]
*882 x\[9\][7]
*883 x\[9\][6]
*884 x\[9\][5]
*885 x\[9\][4]
*886 x\[9\][3]
*887 x\[9\][2]
*888 x\[9\][1]
*889 x\[9\][0]
*890 x\[10\][16]
*891 x\[10\][15]
*892 x\[10\][14]
*893 x\[10\][13]
*894 x\[10\][12]
*895 x\[10\][11]
*896 x\[10\][10]
*897 x\[10\][9]
*898 x\[10\][8]
*899 x\[10\][7]
*900 x\[10\][6]
*901 x\[10\][5]
*902 x\[10\][4]
*903 x\[10\][3]
*904 x\[10\][2]
*905 x\[10\][1]
*906 x\[10\][0]
*907 x\[11\][16]
*908 x\[11\][15]
*909 x\[11\][14]
*910 x\[11\][13]
*911 x\[11\][12]
*912 x\[11\][11]
*913 x\[11\][10]
*914 x\[11\][9]
*915 x\[11\][8]
*916 x\[11\][7]
*917 x\[11\][6]
*918 x\[11\][5]
*919 x\[11\][4]
*920 x\[11\][3]
*921 x\[11\][2]
*922 x\[11\][1]
*923 x\[11\][0]
*924 x\[12\][16]
*925 x\[12\][15]
*926 x\[12\][14]
*927 x\[12\][12]
*928 x\[12\][11]
*929 x\[12\][10]
*930 x\[12\][9]
*931 x\[12\][8]
*932 x\[12\][7]
*933 x\[12\][6]
*934 x\[12\][5]
*935 x\[12\][4]
*936 x\[12\][3]
*937 x\[12\][2]
*938 x\[12\][1]
*939 x\[12\][0]
*940 x\[13\][16]
*941 x\[13\][15]
*942 x\[13\][14]
*943 x\[13\][13]
*944 x\[13\][12]
*945 x\[13\][11]
*946 x\[13\][10]
*947 x\[13\][9]
*948 x\[13\][8]
*949 x\[13\][7]
*950 x\[13\][6]
*951 x\[13\][5]
*952 x\[13\][4]
*953 x\[13\][3]
*954 x\[13\][2]
*955 x\[13\][1]
*956 x\[13\][0]
*957 x\[14\][16]
*958 x\[14\][15]
*959 x\[14\][14]
*960 x\[14\][13]
*961 x\[14\][12]
*962 x\[14\][11]
*963 x\[14\][10]
*964 x\[14\][9]
*965 x\[14\][8]
*966 x\[14\][7]
*967 x\[14\][5]
*968 x\[14\][4]
*969 x\[14\][3]
*970 x\[14\][2]
*971 x\[14\][1]
*972 x\[14\][0]
*973 genblk1\[2\]\.U_add_241_20_Y_sub_245_20_n_1
*974 genblk1\[2\]\.U_add_241_20_Y_sub_245_20_n_2
*975 genblk1\[2\]\.U_add_241_20_Y_sub_245_20_n_3
*976 genblk1\[2\]\.U_add_241_20_Y_sub_245_20_n_4
*977 genblk1\[2\]\.U_add_241_20_Y_sub_245_20_n_5
*978 genblk1\[2\]\.U_add_241_20_Y_sub_245_20_n_6
*979 genblk1\[2\]\.U_add_241_20_Y_sub_245_20_n_7
*980 genblk1\[2\]\.U_add_241_20_Y_sub_245_20_n_8
*981 genblk1\[2\]\.U_add_241_20_Y_sub_245_20_n_9
*982 genblk1\[2\]\.U_add_241_20_Y_sub_245_20_n_10
*983 genblk1\[2\]\.U_add_241_20_Y_sub_245_20_n_11
*984 genblk1\[2\]\.U_add_241_20_Y_sub_245_20_n_12
*985 genblk1\[2\]\.U_add_241_20_Y_sub_245_20_n_13
*986 genblk1\[2\]\.U_add_241_20_Y_sub_245_20_n_14
*987 genblk1\[2\]\.U_add_241_20_Y_sub_245_20_n_15
*988 genblk1\[2\]\.U_add_241_20_Y_sub_245_20_n_16
*989 genblk1\[2\]\.U_add_241_20_Y_sub_245_20_n_17
*990 genblk1\[2\]\.U_add_241_20_Y_sub_245_20_n_19
*991 genblk1\[2\]\.U_add_241_20_Y_sub_245_20_n_21
*992 genblk1\[2\]\.U_add_241_20_Y_sub_245_20_n_23
*993 genblk1\[2\]\.U_add_241_20_Y_sub_245_20_n_25
*994 genblk1\[2\]\.U_add_241_20_Y_sub_245_20_n_27
*995 genblk1\[2\]\.U_add_241_20_Y_sub_245_20_n_29
*996 genblk1\[2\]\.U_add_241_20_Y_sub_245_20_n_31
*997 genblk1\[2\]\.U_add_241_20_Y_sub_245_20_n_33
*998 genblk1\[2\]\.U_add_241_20_Y_sub_245_20_n_35
*999 genblk1\[2\]\.U_add_241_20_Y_sub_245_20_n_37
*1000 genblk1\[2\]\.U_add_241_20_Y_sub_245_20_n_39
*1001 genblk1\[2\]\.U_add_241_20_Y_sub_245_20_n_41
*1002 genblk1\[2\]\.U_add_241_20_Y_sub_245_20_n_43
*1003 genblk1\[2\]\.U_add_241_20_Y_sub_245_20_n_45
*1004 genblk1\[2\]\.U_add_241_20_Y_sub_245_20_n_47
*1005 genblk1\[2\]\.U_add_246_20_Y_sub_242_20_n_1
*1006 genblk1\[2\]\.U_add_246_20_Y_sub_242_20_n_2
*1007 genblk1\[2\]\.U_add_246_20_Y_sub_242_20_n_3
*1008 genblk1\[2\]\.U_add_246_20_Y_sub_242_20_n_4
*1009 genblk1\[2\]\.U_add_246_20_Y_sub_242_20_n_5
*1010 genblk1\[2\]\.U_add_246_20_Y_sub_242_20_n_6
*1011 genblk1\[2\]\.U_add_246_20_Y_sub_242_20_n_7
*1012 genblk1\[2\]\.U_add_246_20_Y_sub_242_20_n_8
*1013 genblk1\[2\]\.U_add_246_20_Y_sub_242_20_n_9
*1014 genblk1\[2\]\.U_add_246_20_Y_sub_242_20_n_10
*1015 genblk1\[2\]\.U_add_246_20_Y_sub_242_20_n_11
*1016 genblk1\[2\]\.U_add_246_20_Y_sub_242_20_n_12
*1017 genblk1\[2\]\.U_add_246_20_Y_sub_242_20_n_13
*1018 genblk1\[2\]\.U_add_246_20_Y_sub_242_20_n_14
*1019 genblk1\[2\]\.U_add_246_20_Y_sub_242_20_n_15
*1020 genblk1\[2\]\.U_add_246_20_Y_sub_242_20_n_16
*1021 genblk1\[2\]\.U_add_246_20_Y_sub_242_20_n_17
*1022 genblk1\[2\]\.U_add_246_20_Y_sub_242_20_n_19
*1023 genblk1\[2\]\.U_add_246_20_Y_sub_242_20_n_21
*1024 genblk1\[2\]\.U_add_246_20_Y_sub_242_20_n_23
*1025 genblk1\[2\]\.U_add_246_20_Y_sub_242_20_n_25
*1026 genblk1\[2\]\.U_add_246_20_Y_sub_242_20_n_27
*1027 genblk1\[2\]\.U_add_246_20_Y_sub_242_20_n_29
*1028 genblk1\[2\]\.U_add_246_20_Y_sub_242_20_n_31
*1029 genblk1\[2\]\.U_add_246_20_Y_sub_242_20_n_33
*1030 genblk1\[2\]\.U_add_246_20_Y_sub_242_20_n_35
*1031 genblk1\[2\]\.U_add_246_20_Y_sub_242_20_n_37
*1032 genblk1\[2\]\.U_add_246_20_Y_sub_242_20_n_39
*1033 genblk1\[2\]\.U_add_246_20_Y_sub_242_20_n_41
*1034 genblk1\[2\]\.U_add_246_20_Y_sub_242_20_n_43
*1035 genblk1\[2\]\.U_add_246_20_Y_sub_242_20_n_45
*1036 genblk1\[2\]\.U_add_246_20_Y_sub_242_20_n_47
*1037 genblk1\[2\]\.U_n_49
*1038 genblk1\[2\]\.U_n_230
*1039 genblk1\[2\]\.U_n_231
*1040 genblk1\[2\]\.U_n_232
*1041 genblk1\[2\]\.U_n_233
*1042 genblk1\[2\]\.U_n_234
*1043 genblk1\[2\]\.U_n_235
*1044 genblk1\[2\]\.U_n_236
*1045 genblk1\[2\]\.U_n_237
*1046 genblk1\[2\]\.U_n_238
*1047 genblk1\[2\]\.U_n_239
*1048 genblk1\[2\]\.U_n_240
*1049 genblk1\[2\]\.U_n_241
*1050 genblk1\[2\]\.U_n_242
*1051 genblk1\[2\]\.U_n_243
*1052 genblk1\[2\]\.U_n_244
*1053 genblk1\[2\]\.U_n_245
*1054 genblk1\[2\]\.U_n_246
*1055 genblk1\[2\]\.U_n_281
*1056 genblk1\[2\]\.U_n_282
*1057 genblk1\[2\]\.U_n_283
*1058 genblk1\[2\]\.U_n_284
*1059 genblk1\[2\]\.U_n_285
*1060 genblk1\[2\]\.U_n_286
*1061 genblk1\[2\]\.U_n_287
*1062 genblk1\[2\]\.U_n_288
*1063 genblk1\[2\]\.U_n_289
*1064 genblk1\[2\]\.U_n_290
*1065 genblk1\[2\]\.U_n_291
*1066 genblk1\[2\]\.U_n_292
*1067 genblk1\[2\]\.U_n_293
*1068 genblk1\[2\]\.U_n_294
*1069 genblk1\[2\]\.U_n_295
*1070 genblk1\[2\]\.U_n_296
*1071 genblk1\[2\]\.U_n_297
*1072 genblk1\[2\]\.U_n_1164
*1073 genblk1\[2\]\.U_n_1189
*1074 genblk1\[2\]\.U_n_1194
*1075 genblk1\[2\]\.U_n_1195
*1076 genblk1\[3\]\.U_add_241_20_Y_sub_245_20_n_1
*1077 genblk1\[3\]\.U_add_241_20_Y_sub_245_20_n_2
*1078 genblk1\[3\]\.U_add_241_20_Y_sub_245_20_n_3
*1079 genblk1\[3\]\.U_add_241_20_Y_sub_245_20_n_4
*1080 genblk1\[3\]\.U_add_241_20_Y_sub_245_20_n_5
*1081 genblk1\[3\]\.U_add_241_20_Y_sub_245_20_n_6
*1082 genblk1\[3\]\.U_add_241_20_Y_sub_245_20_n_7
*1083 genblk1\[3\]\.U_add_241_20_Y_sub_245_20_n_8
*1084 genblk1\[3\]\.U_add_241_20_Y_sub_245_20_n_9
*1085 genblk1\[3\]\.U_add_241_20_Y_sub_245_20_n_10
*1086 genblk1\[3\]\.U_add_241_20_Y_sub_245_20_n_11
*1087 genblk1\[3\]\.U_add_241_20_Y_sub_245_20_n_12
*1088 genblk1\[3\]\.U_add_241_20_Y_sub_245_20_n_13
*1089 genblk1\[3\]\.U_add_241_20_Y_sub_245_20_n_14
*1090 genblk1\[3\]\.U_add_241_20_Y_sub_245_20_n_15
*1091 genblk1\[3\]\.U_add_241_20_Y_sub_245_20_n_16
*1092 genblk1\[3\]\.U_add_241_20_Y_sub_245_20_n_18
*1093 genblk1\[3\]\.U_add_241_20_Y_sub_245_20_n_20
*1094 genblk1\[3\]\.U_add_241_20_Y_sub_245_20_n_22
*1095 genblk1\[3\]\.U_add_241_20_Y_sub_245_20_n_24
*1096 genblk1\[3\]\.U_add_241_20_Y_sub_245_20_n_26
*1097 genblk1\[3\]\.U_add_241_20_Y_sub_245_20_n_28
*1098 genblk1\[3\]\.U_add_241_20_Y_sub_245_20_n_30
*1099 genblk1\[3\]\.U_add_241_20_Y_sub_245_20_n_32
*1100 genblk1\[3\]\.U_add_241_20_Y_sub_245_20_n_34
*1101 genblk1\[3\]\.U_add_241_20_Y_sub_245_20_n_36
*1102 genblk1\[3\]\.U_add_241_20_Y_sub_245_20_n_38
*1103 genblk1\[3\]\.U_add_241_20_Y_sub_245_20_n_40
*1104 genblk1\[3\]\.U_add_241_20_Y_sub_245_20_n_42
*1105 genblk1\[3\]\.U_add_241_20_Y_sub_245_20_n_44
*1106 genblk1\[3\]\.U_add_241_20_Y_sub_245_20_n_46
*1107 genblk1\[3\]\.U_add_246_20_Y_sub_242_20_n_1
*1108 genblk1\[3\]\.U_add_246_20_Y_sub_242_20_n_2
*1109 genblk1\[3\]\.U_add_246_20_Y_sub_242_20_n_3
*1110 genblk1\[3\]\.U_add_246_20_Y_sub_242_20_n_4
*1111 genblk1\[3\]\.U_add_246_20_Y_sub_242_20_n_5
*1112 genblk1\[3\]\.U_add_246_20_Y_sub_242_20_n_6
*1113 genblk1\[3\]\.U_add_246_20_Y_sub_242_20_n_7
*1114 genblk1\[3\]\.U_add_246_20_Y_sub_242_20_n_8
*1115 genblk1\[3\]\.U_add_246_20_Y_sub_242_20_n_9
*1116 genblk1\[3\]\.U_add_246_20_Y_sub_242_20_n_10
*1117 genblk1\[3\]\.U_add_246_20_Y_sub_242_20_n_11
*1118 genblk1\[3\]\.U_add_246_20_Y_sub_242_20_n_12
*1119 genblk1\[3\]\.U_add_246_20_Y_sub_242_20_n_13
*1120 genblk1\[3\]\.U_add_246_20_Y_sub_242_20_n_14
*1121 genblk1\[3\]\.U_add_246_20_Y_sub_242_20_n_15
*1122 genblk1\[3\]\.U_add_246_20_Y_sub_242_20_n_16
*1123 genblk1\[3\]\.U_add_246_20_Y_sub_242_20_n_18
*1124 genblk1\[3\]\.U_add_246_20_Y_sub_242_20_n_20
*1125 genblk1\[3\]\.U_add_246_20_Y_sub_242_20_n_22
*1126 genblk1\[3\]\.U_add_246_20_Y_sub_242_20_n_24
*1127 genblk1\[3\]\.U_add_246_20_Y_sub_242_20_n_26
*1128 genblk1\[3\]\.U_add_246_20_Y_sub_242_20_n_28
*1129 genblk1\[3\]\.U_add_246_20_Y_sub_242_20_n_30
*1130 genblk1\[3\]\.U_add_246_20_Y_sub_242_20_n_32
*1131 genblk1\[3\]\.U_add_246_20_Y_sub_242_20_n_34
*1132 genblk1\[3\]\.U_add_246_20_Y_sub_242_20_n_36
*1133 genblk1\[3\]\.U_add_246_20_Y_sub_242_20_n_38
*1134 genblk1\[3\]\.U_add_246_20_Y_sub_242_20_n_40
*1135 genblk1\[3\]\.U_add_246_20_Y_sub_242_20_n_42
*1136 genblk1\[3\]\.U_add_246_20_Y_sub_242_20_n_44
*1137 genblk1\[3\]\.U_add_246_20_Y_sub_242_20_n_46
*1138 genblk1\[3\]\.U_n_48
*1139 genblk1\[3\]\.U_n_228
*1140 genblk1\[3\]\.U_n_229
*1141 genblk1\[3\]\.U_n_230
*1142 genblk1\[3\]\.U_n_231
*1143 genblk1\[3\]\.U_n_232
*1144 genblk1\[3\]\.U_n_233
*1145 genblk1\[3\]\.U_n_234
*1146 genblk1\[3\]\.U_n_235
*1147 genblk1\[3\]\.U_n_236
*1148 genblk1\[3\]\.U_n_237
*1149 genblk1\[3\]\.U_n_238
*1150 genblk1\[3\]\.U_n_239
*1151 genblk1\[3\]\.U_n_240
*1152 genblk1\[3\]\.U_n_241
*1153 genblk1\[3\]\.U_n_242
*1154 genblk1\[3\]\.U_n_243
*1155 genblk1\[3\]\.U_n_244
*1156 genblk1\[3\]\.U_n_279
*1157 genblk1\[3\]\.U_n_280
*1158 genblk1\[3\]\.U_n_281
*1159 genblk1\[3\]\.U_n_282
*1160 genblk1\[3\]\.U_n_283
*1161 genblk1\[3\]\.U_n_284
*1162 genblk1\[3\]\.U_n_285
*1163 genblk1\[3\]\.U_n_286
*1164 genblk1\[3\]\.U_n_287
*1165 genblk1\[3\]\.U_n_288
*1166 genblk1\[3\]\.U_n_289
*1167 genblk1\[3\]\.U_n_290
*1168 genblk1\[3\]\.U_n_291
*1169 genblk1\[3\]\.U_n_292
*1170 genblk1\[3\]\.U_n_293
*1171 genblk1\[3\]\.U_n_294
*1172 genblk1\[3\]\.U_n_295
*1173 genblk1\[3\]\.U_n_936
*1174 genblk1\[3\]\.U_n_1077
*1175 genblk1\[3\]\.U_n_1178
*1176 genblk1\[4\]\.U_add_241_20_Y_sub_245_20_n_1
*1177 genblk1\[4\]\.U_add_241_20_Y_sub_245_20_n_2
*1178 genblk1\[4\]\.U_add_241_20_Y_sub_245_20_n_3
*1179 genblk1\[4\]\.U_add_241_20_Y_sub_245_20_n_4
*1180 genblk1\[4\]\.U_add_241_20_Y_sub_245_20_n_5
*1181 genblk1\[4\]\.U_add_241_20_Y_sub_245_20_n_6
*1182 genblk1\[4\]\.U_add_241_20_Y_sub_245_20_n_7
*1183 genblk1\[4\]\.U_add_241_20_Y_sub_245_20_n_8
*1184 genblk1\[4\]\.U_add_241_20_Y_sub_245_20_n_9
*1185 genblk1\[4\]\.U_add_241_20_Y_sub_245_20_n_10
*1186 genblk1\[4\]\.U_add_241_20_Y_sub_245_20_n_11
*1187 genblk1\[4\]\.U_add_241_20_Y_sub_245_20_n_12
*1188 genblk1\[4\]\.U_add_241_20_Y_sub_245_20_n_13
*1189 genblk1\[4\]\.U_add_241_20_Y_sub_245_20_n_14
*1190 genblk1\[4\]\.U_add_241_20_Y_sub_245_20_n_15
*1191 genblk1\[4\]\.U_add_241_20_Y_sub_245_20_n_17
*1192 genblk1\[4\]\.U_add_241_20_Y_sub_245_20_n_19
*1193 genblk1\[4\]\.U_add_241_20_Y_sub_245_20_n_21
*1194 genblk1\[4\]\.U_add_241_20_Y_sub_245_20_n_23
*1195 genblk1\[4\]\.U_add_241_20_Y_sub_245_20_n_25
*1196 genblk1\[4\]\.U_add_241_20_Y_sub_245_20_n_27
*1197 genblk1\[4\]\.U_add_241_20_Y_sub_245_20_n_29
*1198 genblk1\[4\]\.U_add_241_20_Y_sub_245_20_n_31
*1199 genblk1\[4\]\.U_add_241_20_Y_sub_245_20_n_33
*1200 genblk1\[4\]\.U_add_241_20_Y_sub_245_20_n_35
*1201 genblk1\[4\]\.U_add_241_20_Y_sub_245_20_n_37
*1202 genblk1\[4\]\.U_add_241_20_Y_sub_245_20_n_39
*1203 genblk1\[4\]\.U_add_241_20_Y_sub_245_20_n_41
*1204 genblk1\[4\]\.U_add_241_20_Y_sub_245_20_n_43
*1205 genblk1\[4\]\.U_add_241_20_Y_sub_245_20_n_45
*1206 genblk1\[4\]\.U_add_246_20_Y_sub_242_20_n_1
*1207 genblk1\[4\]\.U_add_246_20_Y_sub_242_20_n_2
*1208 genblk1\[4\]\.U_add_246_20_Y_sub_242_20_n_3
*1209 genblk1\[4\]\.U_add_246_20_Y_sub_242_20_n_4
*1210 genblk1\[4\]\.U_add_246_20_Y_sub_242_20_n_5
*1211 genblk1\[4\]\.U_add_246_20_Y_sub_242_20_n_6
*1212 genblk1\[4\]\.U_add_246_20_Y_sub_242_20_n_7
*1213 genblk1\[4\]\.U_add_246_20_Y_sub_242_20_n_8
*1214 genblk1\[4\]\.U_add_246_20_Y_sub_242_20_n_9
*1215 genblk1\[4\]\.U_add_246_20_Y_sub_242_20_n_10
*1216 genblk1\[4\]\.U_add_246_20_Y_sub_242_20_n_11
*1217 genblk1\[4\]\.U_add_246_20_Y_sub_242_20_n_12
*1218 genblk1\[4\]\.U_add_246_20_Y_sub_242_20_n_13
*1219 genblk1\[4\]\.U_add_246_20_Y_sub_242_20_n_14
*1220 genblk1\[4\]\.U_add_246_20_Y_sub_242_20_n_15
*1221 genblk1\[4\]\.U_add_246_20_Y_sub_242_20_n_17
*1222 genblk1\[4\]\.U_add_246_20_Y_sub_242_20_n_19
*1223 genblk1\[4\]\.U_add_246_20_Y_sub_242_20_n_21
*1224 genblk1\[4\]\.U_add_246_20_Y_sub_242_20_n_23
*1225 genblk1\[4\]\.U_add_246_20_Y_sub_242_20_n_25
*1226 genblk1\[4\]\.U_add_246_20_Y_sub_242_20_n_27
*1227 genblk1\[4\]\.U_add_246_20_Y_sub_242_20_n_29
*1228 genblk1\[4\]\.U_add_246_20_Y_sub_242_20_n_31
*1229 genblk1\[4\]\.U_add_246_20_Y_sub_242_20_n_33
*1230 genblk1\[4\]\.U_add_246_20_Y_sub_242_20_n_35
*1231 genblk1\[4\]\.U_add_246_20_Y_sub_242_20_n_37
*1232 genblk1\[4\]\.U_add_246_20_Y_sub_242_20_n_39
*1233 genblk1\[4\]\.U_add_246_20_Y_sub_242_20_n_41
*1234 genblk1\[4\]\.U_add_246_20_Y_sub_242_20_n_43
*1235 genblk1\[4\]\.U_add_246_20_Y_sub_242_20_n_45
*1236 genblk1\[4\]\.U_n_47
*1237 genblk1\[4\]\.U_n_226
*1238 genblk1\[4\]\.U_n_227
*1239 genblk1\[4\]\.U_n_228
*1240 genblk1\[4\]\.U_n_229
*1241 genblk1\[4\]\.U_n_230
*1242 genblk1\[4\]\.U_n_231
*1243 genblk1\[4\]\.U_n_232
*1244 genblk1\[4\]\.U_n_233
*1245 genblk1\[4\]\.U_n_234
*1246 genblk1\[4\]\.U_n_235
*1247 genblk1\[4\]\.U_n_236
*1248 genblk1\[4\]\.U_n_237
*1249 genblk1\[4\]\.U_n_238
*1250 genblk1\[4\]\.U_n_239
*1251 genblk1\[4\]\.U_n_240
*1252 genblk1\[4\]\.U_n_241
*1253 genblk1\[4\]\.U_n_242
*1254 genblk1\[4\]\.U_n_277
*1255 genblk1\[4\]\.U_n_278
*1256 genblk1\[4\]\.U_n_279
*1257 genblk1\[4\]\.U_n_280
*1258 genblk1\[4\]\.U_n_281
*1259 genblk1\[4\]\.U_n_282
*1260 genblk1\[4\]\.U_n_283
*1261 genblk1\[4\]\.U_n_284
*1262 genblk1\[4\]\.U_n_285
*1263 genblk1\[4\]\.U_n_286
*1264 genblk1\[4\]\.U_n_287
*1265 genblk1\[4\]\.U_n_288
*1266 genblk1\[4\]\.U_n_289
*1267 genblk1\[4\]\.U_n_290
*1268 genblk1\[4\]\.U_n_291
*1269 genblk1\[4\]\.U_n_292
*1270 genblk1\[4\]\.U_n_293
*1271 genblk1\[5\]\.U_add_241_20_Y_sub_245_20_n_1
*1272 genblk1\[5\]\.U_add_241_20_Y_sub_245_20_n_2
*1273 genblk1\[5\]\.U_add_241_20_Y_sub_245_20_n_3
*1274 genblk1\[5\]\.U_add_241_20_Y_sub_245_20_n_4
*1275 genblk1\[5\]\.U_add_241_20_Y_sub_245_20_n_5
*1276 genblk1\[5\]\.U_add_241_20_Y_sub_245_20_n_6
*1277 genblk1\[5\]\.U_add_241_20_Y_sub_245_20_n_7
*1278 genblk1\[5\]\.U_add_241_20_Y_sub_245_20_n_8
*1279 genblk1\[5\]\.U_add_241_20_Y_sub_245_20_n_9
*1280 genblk1\[5\]\.U_add_241_20_Y_sub_245_20_n_10
*1281 genblk1\[5\]\.U_add_241_20_Y_sub_245_20_n_11
*1282 genblk1\[5\]\.U_add_241_20_Y_sub_245_20_n_12
*1283 genblk1\[5\]\.U_add_241_20_Y_sub_245_20_n_13
*1284 genblk1\[5\]\.U_add_241_20_Y_sub_245_20_n_14
*1285 genblk1\[5\]\.U_add_241_20_Y_sub_245_20_n_16
*1286 genblk1\[5\]\.U_add_241_20_Y_sub_245_20_n_18
*1287 genblk1\[5\]\.U_add_241_20_Y_sub_245_20_n_20
*1288 genblk1\[5\]\.U_add_241_20_Y_sub_245_20_n_22
*1289 genblk1\[5\]\.U_add_241_20_Y_sub_245_20_n_24
*1290 genblk1\[5\]\.U_add_241_20_Y_sub_245_20_n_26
*1291 genblk1\[5\]\.U_add_241_20_Y_sub_245_20_n_28
*1292 genblk1\[5\]\.U_add_241_20_Y_sub_245_20_n_30
*1293 genblk1\[5\]\.U_add_241_20_Y_sub_245_20_n_32
*1294 genblk1\[5\]\.U_add_241_20_Y_sub_245_20_n_34
*1295 genblk1\[5\]\.U_add_241_20_Y_sub_245_20_n_36
*1296 genblk1\[5\]\.U_add_241_20_Y_sub_245_20_n_38
*1297 genblk1\[5\]\.U_add_241_20_Y_sub_245_20_n_40
*1298 genblk1\[5\]\.U_add_241_20_Y_sub_245_20_n_42
*1299 genblk1\[5\]\.U_add_241_20_Y_sub_245_20_n_44
*1300 genblk1\[5\]\.U_add_246_20_Y_sub_242_20_n_1
*1301 genblk1\[5\]\.U_add_246_20_Y_sub_242_20_n_2
*1302 genblk1\[5\]\.U_add_246_20_Y_sub_242_20_n_3
*1303 genblk1\[5\]\.U_add_246_20_Y_sub_242_20_n_4
*1304 genblk1\[5\]\.U_add_246_20_Y_sub_242_20_n_5
*1305 genblk1\[5\]\.U_add_246_20_Y_sub_242_20_n_6
*1306 genblk1\[5\]\.U_add_246_20_Y_sub_242_20_n_7
*1307 genblk1\[5\]\.U_add_246_20_Y_sub_242_20_n_8
*1308 genblk1\[5\]\.U_add_246_20_Y_sub_242_20_n_9