*SPEF "IEEE 1481-1998"
*DESIGN "cordic"
*DATE "Sat Feb  3 23:07:23 2024"
*VENDOR "Cadence Design Systems, Inc."
*PROGRAM "Innovus"
*VERSION "16.26-s040_1"
*DESIGN_FLOW "PIN_CAP NONE" "NAME_SCOPE LOCAL"
*DIVIDER /
*DELIMITER :
*BUS_DELIMITER []
*T_UNIT 1 NS
*C_UNIT 1 PF
*R_UNIT 1 OHM
*L_UNIT 1 HENRY

// MMMC spef file for corner 'rccorners'

*NAME_MAP

*1 FE_OFN100_n_1023
*2 FE_OFN99_n_554
*3 CTS_240
*4 CTS_239
*5 CTS_238
*6 CTS_237
*7 CTS_236
*8 CTS_235
*9 CTS_234
*10 CTS_233
*11 CTS_232
*12 CTS_231
*13 genblk1\[1\]\.U/CTS_4
*14 CTS_230
*15 CTS_229
*16 CTS_228
*17 CTS_227
*18 CTS_226
*19 CTS_225
*20 CTS_224
*21 CTS_223
*22 CTS_222
*23 genblk1\[0\]\.U/CTS_8
*24 CTS_221
*25 CTS_220
*26 CTS_219
*27 CTS_218
*28 CTS_217
*29 CTS_216
*30 CTS_215
*31 CTS_214
*32 CTS_213
*33 CTS_212
*34 CTS_211
*35 CTS_210
*36 CTS_209
*37 CTS_208
*38 CTS_207
*39 CTS_206
*40 CTS_205
*41 CTS_204
*42 CTS_203
*43 CTS_202
*44 CTS_201
*45 CTS_200
*46 CTS_199
*47 CTS_198
*48 CTS_197
*49 CTS_196
*50 CTS_195
*51 CTS_194
*52 genblk1\[0\]\.U/CTS_7
*53 CTS_193
*54 CTS_192
*55 CTS_191
*56 CTS_190
*57 CTS_189
*58 CTS_188
*59 CTS_187
*60 CTS_186
*61 CTS_185
*62 CTS_184
*63 CTS_183
*64 CTS_182
*65 CTS_181
*66 FE_OFN98_n_714
*67 FE_OFN97_n_1089
*68 FE_OFN96_n_522
*69 FE_OFN93_n_703
*70 FE_OFN93_FE_OFN25_SE
*71 FE_OFN91_z_13__2
*72 FE_OFN90_n_882
*73 FE_OFN86_n_1041
*74 FE_OFN81_n_912
*75 FE_OFN80_n_812
*76 genblk1\[0\]\.U/FE_OFN79_n_153
*77 FE_OFN77_n_554
*78 FE_OFN72_genblk1_3__U_n_1077
*79 FE_OFN71_genblk1_2__U_n_1195
*80 genblk1\[1\]\.U/FE_OFN66_n_0
*81 FE_OFN64_n_3
*82 FE_OFN63_n
*83 FE_OFN62_n_841
*84 FE_OFN61_n_722
*85 FE_OFN59_n_523
*86 FE_OFN58_n_516
*87 FE_OFN57_n_507
*88 FE_OFN56_n_496
*89 FE_OFN52_x_13__16
*90 FE_OFN51_z_14__16
*91 FE_OFN50_y_14__5
*92 FE_OFN49_z_13__16
*93 FE_OFN48_z_12__16
*94 FE_OFN47_z_11__2
*95 FE_OFN46_z_11__4
*96 FE_OFN45_z_11__16
*97 FE_OFN44_z_10__16
*98 FE_OFN43_z_9__16
*99 FE_OFN42_y_9__13
*100 FE_OFN41_z_8__16
*101 FE_OFN40_z_7__16
*102 FE_OFN38_z_6__16
*103 FE_OFN37_z_5__16
*104 FE_OFN36_z_4__16
*105 FE_OFN35_z_3__16
*106 FE_OFN34_y_3__11
*107 FE_OFN33_z_2__16
*108 genblk1\[1\]\.U/FE_OFN32_z_1__16
*109 FE_OFN31_dft_sdo_2
*110 FE_OFN30_FE_OFN6_rst
*111 FE_OFN29_FE_OFN16_SE
*112 FE_OFN28_SE
*113 FE_OFN27_SE
*114 FE_OFN26_SE
*115 FE_OFN25_SE
*116 FE_OFN24_SE
*117 FE_OFN23_SE
*118 FE_OFN22_SE
*119 FE_OFN21_SE
*120 FE_OFN20_SE
*121 FE_OFN19_SE
*122 FE_OFN18_SE
*123 FE_OFN17_SE
*124 FE_OFN16_SE
*125 FE_OFN15_SE
*126 FE_OFN14_rst
*127 FE_OFN13_rst
*128 FE_OFN12_rst
*129 FE_OFN11_rst
*130 FE_OFN10_rst
*131 FE_OFN9_rst
*132 FE_OFN8_rst
*133 FE_OFN7_rst
*134 FE_OFN6_rst
*135 FE_OFN5_rst
*136 FE_OFN4_rst
*137 FE_OFN3_rst
*138 FE_OFN2_rst
*139 FE_OFN1_rst
*140 FE_OFN0_rst
*141 clk
*142 rst
*143 SE
*144 scan_in
*145 dft_sdi_1
*146 dft_sdi_2
*147 dft_sdi_3
*148 dft_sdi_4
*149 dft_sdi_5
*150 dft_sdi_6
*151 dft_sdi_7
*152 x_i[16]
*153 x_i[15]
*154 x_i[14]
*155 x_i[13]
*156 x_i[12]
*157 x_i[11]
*158 x_i[10]
*159 x_i[9]
*160 x_i[8]
*161 x_i[7]
*162 x_i[6]
*163 x_i[5]
*164 x_i[4]
*165 x_i[3]
*166 x_i[2]
*167 x_i[1]
*168 x_i[0]
*169 y_i[16]
*170 y_i[15]
*171 y_i[14]
*172 y_i[13]
*173 y_i[12]
*174 y_i[11]
*175 y_i[10]
*176 y_i[9]
*177 y_i[8]
*178 y_i[7]
*179 y_i[6]
*180 y_i[5]
*181 y_i[4]
*182 y_i[3]
*183 y_i[2]
*184 y_i[1]
*185 y_i[0]
*186 theta_i[16]
*187 theta_i[15]
*188 theta_i[14]
*189 theta_i[13]
*190 theta_i[12]
*191 theta_i[11]
*192 theta_i[10]
*193 theta_i[9]
*194 theta_i[8]
*195 theta_i[7]
*196 theta_i[6]
*197 theta_i[5]
*198 theta_i[4]
*199 theta_i[3]
*200 theta_i[2]
*201 theta_i[1]
*202 theta_i[0]
*203 x_o[16]
*204 x_o[15]
*205 x_o[14]
*206 x_o[13]
*207 x_o[12]
*208 x_o[11]
*209 x_o[10]
*210 x_o[9]
*211 x_o[8]
*212 x_o[7]
*213 x_o[6]
*214 x_o[5]
*215 x_o[4]
*216 x_o[3]
*217 x_o[2]
*218 x_o[1]
*219 x_o[0]
*220 y_o[16]
*221 y_o[15]
*222 y_o[14]
*223 y_o[13]
*224 y_o[12]
*225 y_o[11]
*226 y_o[10]
*227 y_o[9]
*228 y_o[8]
*229 y_o[7]
*230 y_o[6]
*231 y_o[5]
*232 y_o[4]
*233 y_o[3]
*234 y_o[2]
*235 y_o[1]
*236 y_o[0]
*237 theta_o[15]
*238 theta_o[14]
*239 theta_o[13]
*240 theta_o[12]
*241 theta_o[11]
*242 theta_o[10]
*243 theta_o[9]
*244 theta_o[8]
*245 theta_o[7]
*246 theta_o[6]
*247 theta_o[5]
*248 theta_o[4]
*249 theta_o[3]
*250 theta_o[2]
*251 theta_o[1]
*252 theta_o[0]
*253 scan_out
*254 dft_sdo_1
*255 dft_sdo_2
*256 dft_sdo_3
*257 dft_sdo_4
*258 dft_sdo_5
*259 dft_sdo_6
*260 dft_sdo_7
*261 x\[1\][16]
*262 x\[1\][15]
*263 x\[1\][14]
*264 x\[1\][13]
*265 x\[1\][12]
*266 x\[1\][11]
*267 x\[1\][10]
*268 x\[1\][9]
*269 x\[1\][8]
*270 x\[1\][7]
*271 x\[1\][6]
*272 x\[1\][5]
*273 x\[1\][4]
*274 x\[1\][3]
*275 x\[1\][2]
*276 x\[1\][1]
*277 x\[1\][0]
*278 y\[1\][16]
*279 y\[1\][15]
*280 y\[1\][14]
*281 y\[1\][13]
*282 y\[1\][12]
*283 y\[1\][11]
*284 y\[1\][10]
*285 y\[1\][9]
*286 y\[1\][8]
*287 y\[1\][7]
*288 y\[1\][6]
*289 y\[1\][5]
*290 y\[1\][4]
*291 y\[1\][3]
*292 y\[1\][2]
*293 y\[1\][1]
*294 y\[1\][0]
*295 z\[1\][16]
*296 z\[1\][15]
*297 z\[1\][14]
*298 z\[1\][13]
*299 z\[1\][12]
*300 z\[1\][11]
*301 z\[1\][10]
*302 z\[1\][9]
*303 z\[1\][8]
*304 z\[1\][7]
*305 z\[1\][6]
*306 z\[1\][5]
*307 z\[1\][4]
*308 z\[1\][3]
*309 z\[1\][2]
*310 z\[1\][1]
*311 z\[1\][0]
*312 x\[2\][16]
*313 x\[2\][15]
*314 x\[2\][14]
*315 x\[2\][13]
*316 x\[2\][12]
*317 x\[2\][11]
*318 x\[2\][10]
*319 x\[2\][9]
*320 x\[2\][8]
*321 x\[2\][7]
*322 x\[2\][6]
*323 x\[2\][5]
*324 x\[2\][4]
*325 x\[2\][3]
*326 x\[2\][2]
*327 x\[2\][1]
*328 x\[2\][0]
*329 y\[2\][16]
*330 y\[2\][15]
*331 y\[2\][14]
*332 y\[2\][13]
*333 y\[2\][12]
*334 y\[2\][11]
*335 y\[2\][10]
*336 y\[2\][9]
*337 y\[2\][8]
*338 y\[2\][7]
*339 y\[2\][6]
*340 y\[2\][5]
*341 y\[2\][4]
*342 y\[2\][3]
*343 y\[2\][2]
*344 y\[2\][1]
*345 y\[2\][0]
*346 z\[2\][16]
*347 z\[2\][15]
*348 z\[2\][14]
*349 z\[2\][13]
*350 z\[2\][12]
*351 z\[2\][11]
*352 z\[2\][9]
*353 z\[2\][8]
*354 z\[2\][7]
*355 z\[2\][6]
*356 z\[2\][5]
*357 z\[2\][4]
*358 z\[2\][3]
*359 z\[2\][2]
*360 z\[2\][1]
*361 z\[2\][0]
*362 y\[3\][16]
*363 y\[3\][15]
*364 y\[3\][14]
*365 y\[3\][13]
*366 y\[3\][12]
*367 y\[3\][11]
*368 y\[3\][10]
*369 y\[3\][9]
*370 y\[3\][8]
*371 y\[3\][7]
*372 y\[3\][6]
*373 y\[3\][5]
*374 y\[3\][4]
*375 y\[3\][3]
*376 y\[3\][2]
*377 y\[3\][1]
*378 y\[3\][0]
*379 z\[3\][16]
*380 z\[3\][15]
*381 z\[3\][14]
*382 z\[3\][13]
*383 z\[3\][12]
*384 z\[3\][11]
*385 z\[3\][10]
*386 z\[3\][9]
*387 z\[3\][8]
*388 z\[3\][7]
*389 z\[3\][6]
*390 z\[3\][5]
*391 z\[3\][4]
*392 z\[3\][3]
*393 z\[3\][2]
*394 z\[3\][1]
*395 z\[3\][0]
*396 y\[4\][16]
*397 y\[4\][15]
*398 y\[4\][14]
*399 y\[4\][13]
*400 y\[4\][12]
*401 y\[4\][11]
*402 y\[4\][10]
*403 y\[4\][9]
*404 y\[4\][8]
*405 y\[4\][7]
*406 y\[4\][6]
*407 y\[4\][5]
*408 y\[4\][4]
*409 y\[4\][3]
*410 y\[4\][2]
*411 y\[4\][1]
*412 y\[4\][0]
*413 z\[4\][16]
*414 z\[4\][15]
*415 z\[4\][14]
*416 z\[4\][13]
*417 z\[4\][12]
*418 z\[4\][11]
*419 z\[4\][10]
*420 z\[4\][9]
*421 z\[4\][8]
*422 z\[4\][7]
*423 z\[4\][6]
*424 z\[4\][5]
*425 z\[4\][3]
*426 z\[4\][2]
*427 z\[4\][1]
*428 z\[4\][0]
*429 y\[5\][16]
*430 y\[5\][15]
*431 y\[5\][14]
*432 y\[5\][13]
*433 y\[5\][12]
*434 y\[5\][11]
*435 y\[5\][10]
*436 y\[5\][9]
*437 y\[5\][8]
*438 y\[5\][7]
*439 y\[5\][6]
*440 y\[5\][5]
*441 y\[5\][4]
*442 y\[5\][3]
*443 y\[5\][2]
*444 y\[5\][1]
*445 y\[5\][0]
*446 z\[5\][16]
*447 z\[5\][15]
*448 z\[5\][14]
*449 z\[5\][13]
*450 z\[5\][12]
*451 z\[5\][11]
*452 z\[5\][10]
*453 z\[5\][9]
*454 z\[5\][8]
*455 z\[5\][7]
*456 z\[5\][6]
*457 z\[5\][5]
*458 z\[5\][4]
*459 z\[5\][3]
*460 z\[5\][2]
*461 z\[5\][1]
*462 z\[5\][0]
*463 y\[6\][16]
*464 y\[6\][14]
*465 y\[6\][13]
*466 y\[6\][12]
*467 y\[6\][11]
*468 y\[6\][10]
*469 y\[6\][9]
*470 y\[6\][8]
*471 y\[6\][7]
*472 y\[6\][6]
*473 y\[6\][5]
*474 y\[6\][4]
*475 y\[6\][3]
*476 y\[6\][2]
*477 y\[6\][1]
*478 y\[6\][0]
*479 z\[6\][16]
*480 z\[6\][15]
*481 z\[6\][14]
*482 z\[6\][13]
*483 z\[6\][12]
*484 z\[6\][11]
*485 z\[6\][10]
*486 z\[6\][9]
*487 z\[6\][8]
*488 z\[6\][7]
*489 z\[6\][6]
*490 z\[6\][5]
*491 z\[6\][4]
*492 z\[6\][3]
*493 z\[6\][2]
*494 z\[6\][1]
*495 z\[6\][0]
*496 y\[7\][16]
*497 y\[7\][15]
*498 y\[7\][14]
*499 y\[7\][13]
*500 y\[7\][12]
*501 y\[7\][11]
*502 y\[7\][10]
*503 y\[7\][9]
*504 y\[7\][8]
*505 y\[7\][7]
*506 y\[7\][6]
*507 y\[7\][5]
*508 y\[7\][4]
*509 y\[7\][3]
*510 y\[7\][2]
*511 y\[7\][1]
*512 y\[7\][0]
*513 z\[7\][16]
*514 z\[7\][15]
*515 z\[7\][14]
*516 z\[7\][13]
*517 z\[7\][12]
*518 z\[7\][11]
*519 z\[7\][10]
*520 z\[7\][9]
*521 z\[7\][8]
*522 z\[7\][7]
*523 z\[7\][6]
*524 z\[7\][5]
*525 z\[7\][4]
*526 z\[7\][3]
*527 z\[7\][2]
*528 z\[7\][1]
*529 z\[7\][0]
*530 y\[8\][16]
*531 y\[8\][15]
*532 y\[8\][14]
*533 y\[8\][13]
*534 y\[8\][12]
*535 y\[8\][11]
*536 y\[8\][10]
*537 y\[8\][8]
*538 y\[8\][7]
*539 y\[8\][6]
*540 y\[8\][5]
*541 y\[8\][4]
*542 y\[8\][3]
*543 y\[8\][2]
*544 y\[8\][1]
*545 y\[8\][0]
*546 z\[8\][16]
*547 z\[8\][15]
*548 z\[8\][14]
*549 z\[8\][13]
*550 z\[8\][12]
*551 z\[8\][11]
*552 z\[8\][10]
*553 z\[8\][9]
*554 z\[8\][8]
*555 z\[8\][7]
*556 z\[8\][6]
*557 z\[8\][5]
*558 z\[8\][4]
*559 z\[8\][3]
*560 z\[8\][2]
*561 z\[8\][1]
*562 z\[8\][0]
*563 y\[9\][16]
*564 y\[9\][15]
*565 y\[9\][14]
*566 y\[9\][13]
*567 y\[9\][12]
*568 y\[9\][11]
*569 y\[9\][10]
*570 y\[9\][9]
*571 y\[9\][8]
*572 y\[9\][7]
*573 y\[9\][6]
*574 y\[9\][5]
*575 y\[9\][4]
*576 y\[9\][3]
*577 y\[9\][2]
*578 y\[9\][1]
*579 y\[9\][0]
*580 z\[9\][16]
*581 z\[9\][15]
*582 z\[9\][14]
*583 z\[9\][13]
*584 z\[9\][12]
*585 z\[9\][11]
*586 z\[9\][10]
*587 z\[9\][9]
*588 z\[9\][8]
*589 z\[9\][7]
*590 z\[9\][6]
*591 z\[9\][5]
*592 z\[9\][4]
*593 z\[9\][3]
*594 z\[9\][2]
*595 z\[9\][1]
*596 z\[9\][0]
*597 y\[10\][16]
*598 y\[10\][15]
*599 y\[10\][14]
*600 y\[10\][13]
*601 y\[10\][12]
*602 y\[10\][11]
*603 y\[10\][10]
*604 y\[10\][9]
*605 y\[10\][8]
*606 y\[10\][7]
*607 y\[10\][6]
*608 y\[10\][5]
*609 y\[10\][4]
*610 y\[10\][2]
*611 y\[10\][1]
*612 y\[10\][0]
*613 z\[10\][16]
*614 z\[10\][15]
*615 z\[10\][14]
*616 z\[10\][13]
*617 z\[10\][12]
*618 z\[10\][11]
*619 z\[10\][10]
*620 z\[10\][9]
*621 z\[10\][8]
*622 z\[10\][7]
*623 z\[10\][6]
*624 z\[10\][5]
*625 z\[10\][4]
*626 z\[10\][3]
*627 z\[10\][2]
*628 z\[10\][1]
*629 z\[10\][0]
*630 y\[11\][16]
*631 y\[11\][15]
*632 y\[11\][14]
*633 y\[11\][13]
*634 y\[11\][12]
*635 y\[11\][11]
*636 y\[11\][10]
*637 y\[11\][9]
*638 y\[11\][8]
*639 y\[11\][7]
*640 y\[11\][6]
*641 y\[11\][5]
*642 y\[11\][4]
*643 y\[11\][3]
*644 y\[11\][2]
*645 y\[11\][1]
*646 y\[11\][0]
*647 z\[11\][16]
*648 z\[11\][15]
*649 z\[11\][14]
*650 z\[11\][13]
*651 z\[11\][12]
*652 z\[11\][11]
*653 z\[11\][10]
*654 z\[11\][9]
*655 z\[11\][8]
*656 z\[11\][7]
*657 z\[11\][6]
*658 z\[11\][5]
*659 z\[11\][4]
*660 z\[11\][3]
*661 z\[11\][2]
*662 z\[11\][1]
*663 z\[11\][0]
*664 y\[12\][16]
*665 y\[12\][15]
*666 y\[12\][14]
*667 y\[12\][13]
*668 y\[12\][12]
*669 y\[12\][11]
*670 y\[12\][10]
*671 y\[12\][9]
*672 y\[12\][8]
*673 y\[12\][7]
*674 y\[12\][6]
*675 y\[12\][5]
*676 y\[12\][4]
*677 y\[12\][3]
*678 y\[12\][2]
*679 y\[12\][1]
*680 y\[12\][0]
*681 z\[12\][16]
*682 z\[12\][15]
*683 z\[12\][14]
*684 z\[12\][13]
*685 z\[12\][12]
*686 z\[12\][11]
*687 z\[12\][10]
*688 z\[12\][9]
*689 z\[12\][8]
*690 z\[12\][7]
*691 z\[12\][6]
*692 z\[12\][5]
*693 z\[12\][4]
*694 z\[12\][3]
*695 z\[12\][2]
*696 z\[12\][1]
*697 z\[12\][0]
*698 y\[13\][16]
*699 y\[13\][15]
*700 y\[13\][14]
*701 y\[13\][13]
*702 y\[13\][12]
*703 y\[13\][11]
*704 y\[13\][10]
*705 y\[13\][9]
*706 y\[13\][8]
*707 y\[13\][7]
*708 y\[13\][6]
*709 y\[13\][5]
*710 y\[13\][4]
*711 y\[13\][3]
*712 y\[13\][2]
*713 y\[13\][1]
*714 y\[13\][0]
*715 z\[13\][16]
*716 z\[13\][15]
*717 z\[13\][14]
*718 z\[13\][13]
*719 z\[13\][12]
*720 z\[13\][11]
*721 z\[13\][10]
*722 z\[13\][9]
*723 z\[13\][8]
*724 z\[13\][7]
*725 z\[13\][6]
*726 z\[13\][5]
*727 z\[13\][4]
*728 z\[13\][3]
*729 z\[13\][2]
*730 z\[13\][1]
*731 z\[13\][0]
*732 y\[14\][16]
*733 y\[14\][15]
*734 y\[14\][14]
*735 y\[14\][13]
*736 y\[14\][12]
*737 y\[14\][11]
*738 y\[14\][10]
*739 y\[14\][9]
*740 y\[14\][8]
*741 y\[14\][7]
*742 y\[14\][6]
*743 y\[14\][5]
*744 y\[14\][4]
*745 y\[14\][3]
*746 y\[14\][2]
*747 y\[14\][1]
*748 y\[14\][0]
*749 z\[14\][16]
*750 z\[14\][15]
*751 z\[14\][14]
*752 z\[14\][13]
*753 z\[14\][12]
*754 z\[14\][11]
*755 z\[14\][10]
*756 z\[14\][9]
*757 z\[14\][8]
*758 z\[14\][7]
*759 z\[14\][6]
*760 z\[14\][5]
*761 z\[14\][4]
*762 z\[14\][3]
*763 z\[14\][2]
*764 z\[14\][1]
*765 z\[14\][0]
*766 x\[3\][16]
*767 x\[3\][15]
*768 x\[3\][14]
*769 x\[3\][13]
*770 x\[3\][12]
*771 x\[3\][11]
*772 x\[3\][10]
*773 x\[3\][9]
*774 x\[3\][8]
*775 x\[3\][7]
*776 x\[3\][6]
*777 x\[3\][5]
*778 x\[3\][4]
*779 x\[3\][3]
*780 x\[3\][2]
*781 x\[3\][1]
*782 x\[3\][0]
*783 x\[4\][16]
*784 x\[4\][15]
*785 x\[4\][14]
*786 x\[4\][13]
*787 x\[4\][12]
*788 x\[4\][11]
*789 x\[4\][10]
*790 x\[4\][9]
*791 x\[4\][8]
*792 x\[4\][7]
*793 x\[4\][6]
*794 x\[4\][5]
*795 x\[4\][4]
*796 x\[4\][3]
*797 x\[4\][2]
*798 x\[4\][1]
*799 x\[4\][0]
*800 x\[5\][16]
*801 x\[5\][15]
*802 x\[5\][14]
*803 x\[5\][13]
*804 x\[5\][12]
*805 x\[5\][11]
*806 x\[5\][10]
*807 x\[5\][9]
*808 x\[5\][8]
*809 x\[5\][7]
*810 x\[5\][6]
*811 x\[5\][5]
*812 x\[5\][4]
*813 x\[5\][3]
*814 x\[5\][2]
*815 x\[5\][1]
*816 x\[5\][0]
*817 x\[6\][16]
*818 x\[6\][15]
*819 x\[6\][14]
*820 x\[6\][13]
*821 x\[6\][12]
*822 x\[6\][11]
*823 x\[6\][10]
*824 x\[6\][9]
*825 x\[6\][8]
*826 x\[6\][7]
*827 x\[6\][6]
*828 x\[6\][5]
*829 x\[6\][4]
*830 x\[6\][3]
*831 x\[6\][2]
*832 x\[6\][1]
*833 x\[6\][0]
*834 x\[7\][16]
*835 x\[7\][15]
*836 x\[7\][14]
*837 x\[7\][13]
*838 x\[7\][12]
*839 x\[7\][11]
*840 x\[7\][10]
*841 x\[7\][9]
*842 x\[7\][8]
*843 x\[7\][7]
*844 x\[7\][6]
*845 x\[7\][5]
*846 x\[7\][4]
*847 x\[7\][3]
*848 x\[7\][2]
*849 x\[7\][1]
*850 x\[7\][0]
*851 x\[8\][16]
*852 x\[8\][15]
*853 x\[8\][14]
*854 x\[8\][13]
*855 x\[8\][12]
*856 x\[8\][11]
*857 x\[8\][10]
*858 x\[8\][9]
*859 x\[8\][8]
*860 x\[8\][7]
*861 x\[8\][6]
*862 x\[8\][5]
*863 x\[8\][4]
*864 x\[8\][3]
*865 x\[8\][2]
*866 x\[8\][1]
*867 x\[8\][0]
*868 x\[9\][16]
*869 x\[9\][15]
*870 x\[9\][14]
*871 x\[9\][13]
*872 x\[9\][12]
*873 x\[9\][11]
*874 x\[9\][10]
*875 x\[9\][9]
*876 x\[9\][8]
*877 x\[9\][7]
*878 x\[9\][6]
*879 x\[9\][5]
*880 x\[9\][4]
*881 x\[9\][3]
*882 x\[9\][2]
*883 x\[9\][1]
*884 x\[9\][0]
*885 x\[10\][16]
*886 x\[10\][15]
*887 x\[10\][14]
*888 x\[10\][13]
*889 x\[10\][12]
*890 x\[10\][11]
*891 x\[10\][10]
*892 x\[10\][9]
*893 x\[10\][8]
*894 x\[10\][7]
*895 x\[10\][6]
*896 x\[10\][5]
*897 x\[10\][4]
*898 x\[10\][3]
*899 x\[10\][2]
*900 x\[10\][1]
*901 x\[10\][0]
*902 x\[11\][16]
*903 x\[11\][15]
*904 x\[11\][14]
*905 x\[11\][13]
*906 x\[11\][12]
*907 x\[11\][11]
*908 x\[11\][10]
*909 x\[11\][9]
*910 x\[11\][8]
*911 x\[11\][7]
*912 x\[11\][6]
*913 x\[11\][5]
*914 x\[11\][4]
*915 x\[11\][3]
*916 x\[11\][2]
*917 x\[11\][1]
*918 x\[11\][0]
*919 x\[12\][16]
*920 x\[12\][15]
*921 x\[12\][14]
*922 x\[12\][12]
*923 x\[12\][11]
*924 x\[12\][10]
*925 x\[12\][9]
*926 x\[12\][8]
*927 x\[12\][7]
*928 x\[12\][6]
*929 x\[12\][5]
*930 x\[12\][4]
*931 x\[12\][3]
*932 x\[12\][2]
*933 x\[12\][1]
*934 x\[12\][0]
*935 x\[13\][16]
*936 x\[13\][15]
*937 x\[13\][14]
*938 x\[13\][13]
*939 x\[13\][12]
*940 x\[13\][11]
*941 x\[13\][10]
*942 x\[13\][9]
*943 x\[13\][8]
*944 x\[13\][7]
*945 x\[13\][6]
*946 x\[13\][5]
*947 x\[13\][4]
*948 x\[13\][3]
*949 x\[13\][2]
*950 x\[13\][1]
*951 x\[13\][0]
*952 x\[14\][16]
*953 x\[14\][15]
*954 x\[14\][14]
*955 x\[14\][13]
*956 x\[14\][12]
*957 x\[14\][11]
*958 x\[14\][10]
*959 x\[14\][9]
*960 x\[14\][8]
*961 x\[14\][7]
*962 x\[14\][5]
*963 x\[14\][4]
*964 x\[14\][3]
*965 x\[14\][2]
*966 x\[14\][1]
*967 x\[14\][0]
*968 genblk1\[2\]\.U_add_241_20_Y_sub_245_20_n_1
*969 genblk1\[2\]\.U_add_241_20_Y_sub_245_20_n_2
*970 genblk1\[2\]\.U_add_241_20_Y_sub_245_20_n_3
*971 genblk1\[2\]\.U_add_241_20_Y_sub_245_20_n_4
*972 genblk1\[2\]\.U_add_241_20_Y_sub_245_20_n_5
*973 genblk1\[2\]\.U_add_241_20_Y_sub_245_20_n_6
*974 genblk1\[2\]\.U_add_241_20_Y_sub_245_20_n_7
*975 genblk1\[2\]\.U_add_241_20_Y_sub_245_20_n_8
*976 genblk1\[2\]\.U_add_241_20_Y_sub_245_20_n_9
*977 genblk1\[2\]\.U_add_241_20_Y_sub_245_20_n_10
*978 genblk1\[2\]\.U_add_241_20_Y_sub_245_20_n_11
*979 genblk1\[2\]\.U_add_241_20_Y_sub_245_20_n_12
*980 genblk1\[2\]\.U_add_241_20_Y_sub_245_20_n_13
*981 genblk1\[2\]\.U_add_241_20_Y_sub_245_20_n_14
*982 genblk1\[2\]\.U_add_241_20_Y_sub_245_20_n_15
*983 genblk1\[2\]\.U_add_241_20_Y_sub_245_20_n_16
*984 genblk1\[2\]\.U_add_241_20_Y_sub_245_20_n_17
*985 genblk1\[2\]\.U_add_241_20_Y_sub_245_20_n_19
*986 genblk1\[2\]\.U_add_241_20_Y_sub_245_20_n_21
*987 genblk1\[2\]\.U_add_241_20_Y_sub_245_20_n_23
*988 genblk1\[2\]\.U_add_241_20_Y_sub_245_20_n_25
*989 genblk1\[2\]\.U_add_241_20_Y_sub_245_20_n_27
*990 genblk1\[2\]\.U_add_241_20_Y_sub_245_20_n_29
*991 genblk1\[2\]\.U_add_241_20_Y_sub_245_20_n_31
*992 genblk1\[2\]\.U_add_241_20_Y_sub_245_20_n_33
*993 genblk1\[2\]\.U_add_241_20_Y_sub_245_20_n_35
*994 genblk1\[2\]\.U_add_241_20_Y_sub_245_20_n_37
*995 genblk1\[2\]\.U_add_241_20_Y_sub_245_20_n_39
*996 genblk1\[2\]\.U_add_241_20_Y_sub_245_20_n_41
*997 genblk1\[2\]\.U_add_241_20_Y_sub_245_20_n_43
*998 genblk1\[2\]\.U_add_241_20_Y_sub_245_20_n_45
*999 genblk1\[2\]\.U_add_241_20_Y_sub_245_20_n_47
*1000 genblk1\[2\]\.U_add_246_20_Y_sub_242_20_n_1
*1001 genblk1\[2\]\.U_add_246_20_Y_sub_242_20_n_2
*1002 genblk1\[2\]\.U_add_246_20_Y_sub_242_20_n_3
*1003 genblk1\[2\]\.U_add_246_20_Y_sub_242_20_n_4
*1004 genblk1\[2\]\.U_add_246_20_Y_sub_242_20_n_5
*1005 genblk1\[2\]\.U_add_246_20_Y_sub_242_20_n_6
*1006 genblk1\[2\]\.U_add_246_20_Y_sub_242_20_n_7
*1007 genblk1\[2\]\.U_add_246_20_Y_sub_242_20_n_8
*1008 genblk1\[2\]\.U_add_246_20_Y_sub_242_20_n_9
*1009 genblk1\[2\]\.U_add_246_20_Y_sub_242_20_n_10
*1010 genblk1\[2\]\.U_add_246_20_Y_sub_242_20_n_11
*1011 genblk1\[2\]\.U_add_246_20_Y_sub_242_20_n_12
*1012 genblk1\[2\]\.U_add_246_20_Y_sub_242_20_n_13
*1013 genblk1\[2\]\.U_add_246_20_Y_sub_242_20_n_14
*1014 genblk1\[2\]\.U_add_246_20_Y_sub_242_20_n_15
*1015 genblk1\[2\]\.U_add_246_20_Y_sub_242_20_n_16
*1016 genblk1\[2\]\.U_add_246_20_Y_sub_242_20_n_17
*1017 genblk1\[2\]\.U_add_246_20_Y_sub_242_20_n_19
*1018 genblk1\[2\]\.U_add_246_20_Y_sub_242_20_n_21
*1019 genblk1\[2\]\.U_add_246_20_Y_sub_242_20_n_23
*1020 genblk1\[2\]\.U_add_246_20_Y_sub_242_20_n_25
*1021 genblk1\[2\]\.U_add_246_20_Y_sub_242_20_n_27
*1022 genblk1\[2\]\.U_add_246_20_Y_sub_242_20_n_29
*1023 genblk1\[2\]\.U_add_246_20_Y_sub_242_20_n_31
*1024 genblk1\[2\]\.U_add_246_20_Y_sub_242_20_n_33
*1025 genblk1\[2\]\.U_add_246_20_Y_sub_242_20_n_35
*1026 genblk1\[2\]\.U_add_246_20_Y_sub_242_20_n_37
*1027 genblk1\[2\]\.U_add_246_20_Y_sub_242_20_n_39
*1028 genblk1\[2\]\.U_add_246_20_Y_sub_242_20_n_41
*1029 genblk1\[2\]\.U_add_246_20_Y_sub_242_20_n_43
*1030 genblk1\[2\]\.U_add_246_20_Y_sub_242_20_n_45
*1031 genblk1\[2\]\.U_add_246_20_Y_sub_242_20_n_47
*1032 genblk1\[2\]\.U_n_49
*1033 genblk1\[2\]\.U_n_230
*1034 genblk1\[2\]\.U_n_231
*1035 genblk1\[2\]\.U_n_232
*1036 genblk1\[2\]\.U_n_233
*1037 genblk1\[2\]\.U_n_234
*1038 genblk1\[2\]\.U_n_235
*1039 genblk1\[2\]\.U_n_236
*1040 genblk1\[2\]\.U_n_237
*1041 genblk1\[2\]\.U_n_238
*1042 genblk1\[2\]\.U_n_239
*1043 genblk1\[2\]\.U_n_240
*1044 genblk1\[2\]\.U_n_241
*1045 genblk1\[2\]\.U_n_242
*1046 genblk1\[2\]\.U_n_243
*1047 genblk1\[2\]\.U_n_244
*1048 genblk1\[2\]\.U_n_245
*1049 genblk1\[2\]\.U_n_246
*1050 genblk1\[2\]\.U_n_281
*1051 genblk1\[2\]\.U_n_282
*1052 genblk1\[2\]\.U_n_283
*1053 genblk1\[2\]\.U_n_284
*1054 genblk1\[2\]\.U_n_285
*1055 genblk1\[2\]\.U_n_286
*1056 genblk1\[2\]\.U_n_287
*1057 genblk1\[2\]\.U_n_288
*1058 genblk1\[2\]\.U_n_289
*1059 genblk1\[2\]\.U_n_290
*1060 genblk1\[2\]\.U_n_291
*1061 genblk1\[2\]\.U_n_292
*1062 genblk1\[2\]\.U_n_293
*1063 genblk1\[2\]\.U_n_294
*1064 genblk1\[2\]\.U_n_295
*1065 genblk1\[2\]\.U_n_296
*1066 genblk1\[2\]\.U_n_297
*1067 genblk1\[2\]\.U_n_1164
*1068 genblk1\[2\]\.U_n_1189
*1069 genblk1\[2\]\.U_n_1194
*1070 genblk1\[2\]\.U_n_1195
*1071 genblk1\[3\]\.U_add_241_20_Y_sub_245_20_n_1
*1072 genblk1\[3\]\.U_add_241_20_Y_sub_245_20_n_2
*1073 genblk1\[3\]\.U_add_241_20_Y_sub_245_20_n_3
*1074 genblk1\[3\]\.U_add_241_20_Y_sub_245_20_n_4
*1075 genblk1\[3\]\.U_add_241_20_Y_sub_245_20_n_5
*1076 genblk1\[3\]\.U_add_241_20_Y_sub_245_20_n_6
*1077 genblk1\[3\]\.U_add_241_20_Y_sub_245_20_n_7
*1078 genblk1\[3\]\.U_add_241_20_Y_sub_245_20_n_8
*1079 genblk1\[3\]\.U_add_241_20_Y_sub_245_20_n_9
*1080 genblk1\[3\]\.U_add_241_20_Y_sub_245_20_n_10
*1081 genblk1\[3\]\.U_add_241_20_Y_sub_245_20_n_11
*1082 genblk1\[3\]\.U_add_241_20_Y_sub_245_20_n_12
*1083 genblk1\[3\]\.U_add_241_20_Y_sub_245_20_n_13
*1084 genblk1\[3\]\.U_add_241_20_Y_sub_245_20_n_14
*1085 genblk1\[3\]\.U_add_241_20_Y_sub_245_20_n_15
*1086 genblk1\[3\]\.U_add_241_20_Y_sub_245_20_n_16
*1087 genblk1\[3\]\.U_add_241_20_Y_sub_245_20_n_18
*1088 genblk1\[3\]\.U_add_241_20_Y_sub_245_20_n_20
*1089 genblk1\[3\]\.U_add_241_20_Y_sub_245_20_n_22
*1090 genblk1\[3\]\.U_add_241_20_Y_sub_245_20_n_24
*1091 genblk1\[3\]\.U_add_241_20_Y_sub_245_20_n_26
*1092 genblk1\[3\]\.U_add_241_20_Y_sub_245_20_n_28
*1093 genblk1\[3\]\.U_add_241_20_Y_sub_245_20_n_30
*1094 genblk1\[3\]\.U_add_241_20_Y_sub_245_20_n_32
*1095 genblk1\[3\]\.U_add_241_20_Y_sub_245_20_n_34
*1096 genblk1\[3\]\.U_add_241_20_Y_sub_245_20_n_36
*1097 genblk1\[3\]\.U_add_241_20_Y_sub_245_20_n_38
*1098 genblk1\[3\]\.U_add_241_20_Y_sub_245_20_n_40
*1099 genblk1\[3\]\.U_add_241_20_Y_sub_245_20_n_42
*1100 genblk1\[3\]\.U_add_241_20_Y_sub_245_20_n_44
*1101 genblk1\[3\]\.U_add_241_20_Y_sub_245_20_n_46
*1102 genblk1\[3\]\.U_add_246_20_Y_sub_242_20_n_1
*1103 genblk1\[3\]\.U_add_246_20_Y_sub_242_20_n_2
*1104 genblk1\[3\]\.U_add_246_20_Y_sub_242_20_n_3
*1105 genblk1\[3\]\.U_add_246_20_Y_sub_242_20_n_4
*1106 genblk1\[3\]\.U_add_246_20_Y_sub_242_20_n_5
*1107 genblk1\[3\]\.U_add_246_20_Y_sub_242_20_n_6
*1108 genblk1\[3\]\.U_add_246_20_Y_sub_242_20_n_7
*1109 genblk1\[3\]\.U_add_246_20_Y_sub_242_20_n_8
*1110 genblk1\[3\]\.U_add_246_20_Y_sub_242_20_n_9
*1111 genblk1\[3\]\.U_add_246_20_Y_sub_242_20_n_10
*1112 genblk1\[3\]\.U_add_246_20_Y_sub_242_20_n_11
*1113 genblk1\[3\]\.U_add_246_20_Y_sub_242_20_n_12
*1114 genblk1\[3\]\.U_add_246_20_Y_sub_242_20_n_13
*1115 genblk1\[3\]\.U_add_246_20_Y_sub_242_20_n_14
*1116 genblk1\[3\]\.U_add_246_20_Y_sub_242_20_n_15
*1117 genblk1\[3\]\.U_add_246_20_Y_sub_242_20_n_16
*1118 genblk1\[3\]\.U_add_246_20_Y_sub_242_20_n_18
*1119 genblk1\[3\]\.U_add_246_20_Y_sub_242_20_n_20
*1120 genblk1\[3\]\.U_add_246_20_Y_sub_242_20_n_22
*1121 genblk1\[3\]\.U_add_246_20_Y_sub_242_20_n_24
*1122 genblk1\[3\]\.U_add_246_20_Y_sub_242_20_n_26
*1123 genblk1\[3\]\.U_add_246_20_Y_sub_242_20_n_28
*1124 genblk1\[3\]\.U_add_246_20_Y_sub_242_20_n_30
*1125 genblk1\[3\]\.U_add_246_20_Y_sub_242_20_n_32
*1126 genblk1\[3\]\.U_add_246_20_Y_sub_242_20_n_34
*1127 genblk1\[3\]\.U_add_246_20_Y_sub_242_20_n_36
*1128 genblk1\[3\]\.U_add_246_20_Y_sub_242_20_n_38
*1129 genblk1\[3\]\.U_add_246_20_Y_sub_242_20_n_40
*1130 genblk1\[3\]\.U_add_246_20_Y_sub_242_20_n_42
*1131 genblk1\[3\]\.U_add_246_20_Y_sub_242_20_n_44
*1132 genblk1\[3\]\.U_add_246_20_Y_sub_242_20_n_46
*1133 genblk1\[3\]\.U_n_48
*1134 genblk1\[3\]\.U_n_228
*1135 genblk1\[3\]\.U_n_229
*1136 genblk1\[3\]\.U_n_230
*1137 genblk1\[3\]\.U_n_231
*1138 genblk1\[3\]\.U_n_232
*1139 genblk1\[3\]\.U_n_233
*1140 genblk1\[3\]\.U_n_234
*1141 genblk1\[3\]\.U_n_235
*1142 genblk1\[3\]\.U_n_236
*1143 genblk1\[3\]\.U_n_237
*1144 genblk1\[3\]\.U_n_238
*1145 genblk1\[3\]\.U_n_239
*1146 genblk1\[3\]\.U_n_240
*1147 genblk1\[3\]\.U_n_241
*1148 genblk1\[3\]\.U_n_242
*1149 genblk1\[3\]\.U_n_243
*1150 genblk1\[3\]\.U_n_244
*1151 genblk1\[3\]\.U_n_279
*1152 genblk1\[3\]\.U_n_280
*1153 genblk1\[3\]\.U_n_281
*1154 genblk1\[3\]\.U_n_282
*1155 genblk1\[3\]\.U_n_283
*1156 genblk1\[3\]\.U_n_284
*1157 genblk1\[3\]\.U_n_285
*1158 genblk1\[3\]\.U_n_286
*1159 genblk1\[3\]\.U_n_287
*1160 genblk1\[3\]\.U_n_288
*1161 genblk1\[3\]\.U_n_289
*1162 genblk1\[3\]\.U_n_290
*1163 genblk1\[3\]\.U_n_291
*1164 genblk1\[3\]\.U_n_292
*1165 genblk1\[3\]\.U_n_293
*1166 genblk1\[3\]\.U_n_294
*1167 genblk1\[3\]\.U_n_295
*1168 genblk1\[3\]\.U_n_936
*1169 genblk1\[3\]\.U_n_1077
*1170 genblk1\[3\]\.U_n_1178
*1171 genblk1\[4\]\.U_add_241_20_Y_sub_245_20_n_1
*1172 genblk1\[4\]\.U_add_241_20_Y_sub_245_20_n_2
*1173 genblk1\[4\]\.U_add_241_20_Y_sub_245_20_n_3
*1174 genblk1\[4\]\.U_add_241_20_Y_sub_245_20_n_4
*1175 genblk1\[4\]\.U_add_241_20_Y_sub_245_20_n_5
*1176 genblk1\[4\]\.U_add_241_20_Y_sub_245_20_n_6
*1177 genblk1\[4\]\.U_add_241_20_Y_sub_245_20_n_7
*1178 genblk1\[4\]\.U_add_241_20_Y_sub_245_20_n_8
*1179 genblk1\[4\]\.U_add_241_20_Y_sub_245_20_n_9
*1180 genblk1\[4\]\.U_add_241_20_Y_sub_245_20_n_10
*1181 genblk1\[4\]\.U_add_241_20_Y_sub_245_20_n_11
*1182 genblk1\[4\]\.U_add_241_20_Y_sub_245_20_n_12
*1183 genblk1\[4\]\.U_add_241_20_Y_sub_245_20_n_13
*1184 genblk1\[4\]\.U_add_241_20_Y_sub_245_20_n_14
*1185 genblk1\[4\]\.U_add_241_20_Y_sub_245_20_n_15
*1186 genblk1\[4\]\.U_add_241_20_Y_sub_245_20_n_17
*1187 genblk1\[4\]\.U_add_241_20_Y_sub_245_20_n_19
*1188 genblk1\[4\]\.U_add_241_20_Y_sub_245_20_n_21
*1189 genblk1\[4\]\.U_add_241_20_Y_sub_245_20_n_23
*1190 genblk1\[4\]\.U_add_241_20_Y_sub_245_20_n_25
*1191 genblk1\[4\]\.U_add_241_20_Y_sub_245_20_n_27
*1192 genblk1\[4\]\.U_add_241_20_Y_sub_245_20_n_29
*1193 genblk1\[4\]\.U_add_241_20_Y_sub_245_20_n_31
*1194 genblk1\[4\]\.U_add_241_20_Y_sub_245_20_n_33
*1195 genblk1\[4\]\.U_add_241_20_Y_sub_245_20_n_35
*1196 genblk1\[4\]\.U_add_241_20_Y_sub_245_20_n_37
*1197 genblk1\[4\]\.U_add_241_20_Y_sub_245_20_n_39
*1198 genblk1\[4\]\.U_add_241_20_Y_sub_245_20_n_41
*1199 genblk1\[4\]\.U_add_241_20_Y_sub_245_20_n_43
*1200 genblk1\[4\]\.U_add_241_20_Y_sub_245_20_n_45
*1201 genblk1\[4\]\.U_add_246_20_Y_sub_242_20_n_1
*1202 genblk1\[4\]\.U_add_246_20_Y_sub_242_20_n_2
*1203 genblk1\[4\]\.U_add_246_20_Y_sub_242_20_n_3
*1204 genblk1\[4\]\.U_add_246_20_Y_sub_242_20_n_4
*1205 genblk1\[4\]\.U_add_246_20_Y_sub_242_20_n_5
*1206 genblk1\[4\]\.U_add_246_20_Y_sub_242_20_n_6
*1207 genblk1\[4\]\.U_add_246_20_Y_sub_242_20_n_7
*1208 genblk1\[4\]\.U_add_246_20_Y_sub_242_20_n_8
*1209 genblk1\[4\]\.U_add_246_20_Y_sub_242_20_n_9
*1210 genblk1\[4\]\.U_add_246_20_Y_sub_242_20_n_10
*1211 genblk1\[4\]\.U_add_246_20_Y_sub_242_20_n_11
*1212 genblk1\[4\]\.U_add_246_20_Y_sub_242_20_n_12
*1213 genblk1\[4\]\.U_add_246_20_Y_sub_242_20_n_13
*1214 genblk1\[4\]\.U_add_246_20_Y_sub_242_20_n_14
*1215 genblk1\[4\]\.U_add_246_20_Y_sub_242_20_n_15
*1216 genblk1\[4\]\.U_add_246_20_Y_sub_242_20_n_17
*1217 genblk1\[4\]\.U_add_246_20_Y_sub_242_20_n_19
*1218 genblk1\[4\]\.U_add_246_20_Y_sub_242_20_n_21
*1219 genblk1\[4\]\.U_add_246_20_Y_sub_242_20_n_23
*1220 genblk1\[4\]\.U_add_246_20_Y_sub_242_20_n_25
*1221 genblk1\[4\]\.U_add_246_20_Y_sub_242_20_n_27
*1222 genblk1\[4\]\.U_add_246_20_Y_sub_242_20_n_29
*1223 genblk1\[4\]\.U_add_246_20_Y_sub_242_20_n_31
*1224 genblk1\[4\]\.U_add_246_20_Y_sub_242_20_n_33
*1225 genblk1\[4\]\.U_add_246_20_Y_sub_242_20_n_35
*1226 genblk1\[4\]\.U_add_246_20_Y_sub_242_20_n_37
*1227 genblk1\[4\]\.U_add_246_20_Y_sub_242_20_n_39
*1228 genblk1\[4\]\.U_add_246_20_Y_sub_242_20_n_41
*1229 genblk1\[4\]\.U_add_246_20_Y_sub_242_20_n_43
*1230 genblk1\[4\]\.U_add_246_20_Y_sub_242_20_n_45
*1231 genblk1\[4\]\.U_n_47
*1232 genblk1\[4\]\.U_n_226
*1233 genblk1\[4\]\.U_n_227
*1234 genblk1\[4\]\.U_n_228
*1235 genblk1\[4\]\.U_n_229
*1236 genblk1\[4\]\.U_n_230
*1237 genblk1\[4\]\.U_n_231
*1238 genblk1\[4\]\.U_n_232
*1239 genblk1\[4\]\.U_n_233
*1240 genblk1\[4\]\.U_n_234
*1241 genblk1\[4\]\.U_n_235
*1242 genblk1\[4\]\.U_n_236
*1243 genblk1\[4\]\.U_n_237
*1244 genblk1\[4\]\.U_n_238
*1245 genblk1\[4\]\.U_n_239
*1246 genblk1\[4\]\.U_n_240
*1247 genblk1\[4\]\.U_n_241
*1248 genblk1\[4\]\.U_n_242
*1249 genblk1\[4\]\.U_n_277
*1250 genblk1\[4\]\.U_n_278
*1251 genblk1\[4\]\.U_n_279
*1252 genblk1\[4\]\.U_n_280
*1253 genblk1\[4\]\.U_n_281
*1254 genblk1\[4\]\.U_n_282
*1255 genblk1\[4\]\.U_n_283
*1256 genblk1\[4\]\.U_n_284
*1257 genblk1\[4\]\.U_n_285
*1258 genblk1\[4\]\.U_n_286
*1259 genblk1\[4\]\.U_n_287
*1260 genblk1\[4\]\.U_n_288
*1261 genblk1\[4\]\.U_n_289
*1262 genblk1\[4\]\.U_n_290
*1263 genblk1\[4\]\.U_n_291
*1264 genblk1\[4\]\.U_n_292
*1265 genblk1\[4\]\.U_n_293
*1266 genblk1\[5\]\.U_add_241_20_Y_sub_245_20_n_1
*1267 genblk1\[5\]\.U_add_241_20_Y_sub_245_20_n_2
*1268 genblk1\[5\]\.U_add_241_20_Y_sub_245_20_n_3
*1269 genblk1\[5\]\.U_add_241_20_Y_sub_245_20_n_4
*1270 genblk1\[5\]\.U_add_241_20_Y_sub_245_20_n_5
*1271 genblk1\[5\]\.U_add_241_20_Y_sub_245_20_n_6
*1272 genblk1\[5\]\.U_add_241_20_Y_sub_245_20_n_7
*1273 genblk1\[5\]\.U_add_241_20_Y_sub_245_20_n_8
*1274 genblk1\[5\]\.U_add_241_20_Y_sub_245_20_n_9
*1275 genblk1\[5\]\.U_add_241_20_Y_sub_245_20_n_10
*1276 genblk1\[5\]\.U_add_241_20_Y_sub_245_20_n_11
*1277 genblk1\[5\]\.U_add_241_20_Y_sub_245_20_n_12
*1278 genblk1\[5\]\.U_add_241_20_Y_sub_245_20_n_13
*1279 genblk1\[5\]\.U_add_241_20_Y_sub_245_20_n_14
*1280 genblk1\[5\]\.U_add_241_20_Y_sub_245_20_n_16
*1281 genblk1\[5\]\.U_add_241_20_Y_sub_245_20_n_18
*1282 genblk1\[5\]\.U_add_241_20_Y_sub_245_20_n_20
*1283 genblk1\[5\]\.U_add_241_20_Y_sub_245_20_n_22
*1284 genblk1\[5\]\.U_add_241_20_Y_sub_245_20_n_24
*1285 genblk1\[5\]\.U_add_241_20_Y_sub_245_20_n_26
*1286 genblk1\[5\]\.U_add_241_20_Y_sub_245_20_n_28
*1287 genblk1\[5\]\.U_add_241_20_Y_sub_245_20_n_30
*1288 genblk1\[5\]\.U_add_241_20_Y_sub_245_20_n_32
*1289 genblk1\[5\]\.U_add_241_20_Y_sub_245_20_n_34
*1290 genblk1\[5\]\.U_add_241_20_Y_sub_245_20_n_36
*1291 genblk1\[5\]\.U_add_241_20_Y_sub_245_20_n_38
*1292 genblk1\[5\]\.U_add_241_20_Y_sub_245_20_n_40
*1293 genblk1\[5\]\.U_add_241_20_Y_sub_245_20_n_42
*1294 genblk1\[5\]\.U_add_241_20_Y_sub_245_20_n_44
*1295 genblk1\[5\]\.U_add_246_20_Y_sub_242_20_n_1
*1296 genblk1\[5\]\.U_add_246_20_Y_sub_242_20_n_2
*1297 genblk1\[5\]\.U_add_246_20_Y_sub_242_20_n_3
*1298 genblk1\[5\]\.U_add_246_20_Y_sub_242_20_n_4
*1299 genblk1\[5\]\.U_add_246_20_Y_sub_242_20_n_5
*1300 genblk1\[5\]\.U_add_246_20_Y_sub_242_20_n_6
*1301 genblk1\[5\]\.U_add_246_20_Y_sub_242_20_n_7
*1302 genblk1\[5\]\.U_add_246_20_Y_sub_242_20_n_8
*1303 genblk1\[5\]\.U_add_246_20_Y_sub_242_20_n_9